<?xml version="1.0" encoding="UTF-8"?>

<!-- generated on 2021-09-12 15:06:00 by Eclipse SUMO netedit Version 1.10.0
<configuration xmlns:xsi="http://www.w3.org/2001/XMLSchema-instance" xsi:noNamespaceSchemaLocation="http://sumo.dlr.de/xsd/netconvertConfiguration.xsd">

    <input>
        <sumo-net-file value="D:\zenoh\sumo\sumo_example\induction_loop\play_ground.net.xml"/>
    </input>

    <output>
        <output-file value="D:\zenoh\sumo\sumo_example\subscriptions\subscriptions.net.xml"/>
    </output>

    <processing>
        <geometry.min-radius.fix.railways value="false"/>
        <geometry.max-grade.fix value="false"/>
        <offset.disable-normalization value="true"/>
        <lefthand value="false"/>
    </processing>

    <junctions>
        <no-turnarounds value="true"/>
        <junctions.corner-detail value="5"/>
        <junctions.limit-turn-speed value="5.5"/>
        <rectangular-lane-cut value="false"/>
    </junctions>

    <pedestrian>
        <walkingareas value="false"/>
    </pedestrian>

    <netedit>
        <additional-files value="D:\zenoh\sumo\sumo_example\induction_loop\play_ground.add.xml"/>
        <route-files value="D:\zenoh\sumo\sumo_example\subscriptions\subscriptions.rou.xml"/>
    </netedit>

    <report>
        <aggregate-warnings value="5"/>
    </report>

</configuration>
-->

<routes xmlns:xsi="http://www.w3.org/2001/XMLSchema-instance" xsi:noNamespaceSchemaLocation="http://sumo.dlr.de/xsd/routes_file.xsd">
    <route edges="-gneE7 gneE10 gneE11 -gneE6 -gneE12" color="yellow" id="route_0"/>
    <vehicle id="vehicle_0" depart="0.00" color="6,0,255" route="route_0"/>
    <flow id="flow_0" begin="0.00" from="-gneE10" to="gneE8" via="gneE5 gneE9" end="3600.00" number="1800"/>
</routes>
