<?xml version="1.0" encoding="UTF-8"?>

<!-- generated on 2021-09-12 15:06:30 by Eclipse SUMO netedit Version 1.10.0
<configuration xmlns:xsi="http://www.w3.org/2001/XMLSchema-instance" xsi:noNamespaceSchemaLocation="http://sumo.dlr.de/xsd/netconvertConfiguration.xsd">

    <input>
        <sumo-net-file value="D:\zenoh\sumo\sumo_example\induction_loop\play_ground.net.xml"/>
    </input>

    <output>
        <output-file value="D:\zenoh\sumo\sumo_example\subscriptions\subscriptions.net.xml"/>
    </output>

    <processing>
        <geometry.min-radius.fix.railways value="false"/>
        <geometry.max-grade.fix value="false"/>
        <offset.disable-normalization value="true"/>
        <lefthand value="false"/>
    </processing>

    <junctions>
        <no-turnarounds value="true"/>
        <junctions.corner-detail value="5"/>
        <junctions.limit-turn-speed value="5.5"/>
        <rectangular-lane-cut value="false"/>
    </junctions>

    <pedestrian>
        <walkingareas value="false"/>
    </pedestrian>

    <netedit>
        <additional-files value="D:\zenoh\sumo\sumo_example\subscriptions\subscriptions.add.xml"/>
        <route-files value="D:\zenoh\sumo\sumo_example\subscriptions\subscriptions.rou.xml"/>
    </netedit>

    <report>
        <aggregate-warnings value="5"/>
    </report>

</configuration>
-->

<additional xmlns:xsi="http://www.w3.org/2001/XMLSchema-instance" xsi:noNamespaceSchemaLocation="http://sumo.dlr.de/xsd/additional_file.xsd">
    <e1Detector id="e0" lane="gneE5_0" pos="85.54" freq="300.00" file="e1Detector_gneE5_0_0.xml"/>
    <instantInductionLoop id="induction0" lane="gneE5_0" pos="91.15" file="instantInductionLoop_gneE5_0_0.xml"/>
</additional>
