<?xml version="1.0" encoding="UTF-8"?>

<!-- generated on 2021-09-12 15:35:03 by Eclipse SUMO netedit Version 1.10.0
<configuration xmlns:xsi="http://www.w3.org/2001/XMLSchema-instance" xsi:noNamespaceSchemaLocation="http://sumo.dlr.de/xsd/netconvertConfiguration.xsd">

    <input>
        <sumo-net-file value="D:\zenoh\sumo\sumo_example\container\container.net.xml"/>
    </input>

    <output>
        <output-file value="D:\zenoh\sumo\sumo_example\container\container.net.xml"/>
    </output>

    <processing>
        <geometry.min-radius.fix.railways value="false"/>
        <geometry.max-grade.fix value="false"/>
        <offset.disable-normalization value="true"/>
        <lefthand value="false"/>
    </processing>

    <junctions>
        <no-turnarounds value="true"/>
        <junctions.corner-detail value="5"/>
        <junctions.limit-turn-speed value="5.5"/>
        <rectangular-lane-cut value="false"/>
    </junctions>

    <pedestrian>
        <walkingareas value="false"/>
    </pedestrian>

    <report>
        <aggregate-warnings value="5"/>
    </report>

</configuration>
-->

<net version="1.9" junctionCornerDetail="5" limitTurnSpeed="5.50" xmlns:xsi="http://www.w3.org/2001/XMLSchema-instance" xsi:noNamespaceSchemaLocation="http://sumo.dlr.de/xsd/net_file.xsd">

    <location netOffset="0.00,0.00" convBoundary="-204.57,-55.50,45.60,161.67" origBoundary="-10000000000.00,-10000000000.00,10000000000.00,10000000000.00" projParameter="!"/>

    <edge id=":gneJ10_0" function="internal">
        <lane id=":gneJ10_0_0" index="0" speed="12.88" length="42.31" shape="32.05,15.74 40.95,23.90 43.98,32.04 41.54,40.79 34.05,50.76"/>
        <lane id=":gneJ10_0_1" index="1" speed="11.99" length="36.51" shape="30.22,18.37 37.86,25.40 40.39,32.44 38.20,39.99 31.70,48.60"/>
    </edge>
    <edge id=":gneJ10_2" function="internal">
        <lane id=":gneJ10_2_0" index="0" speed="8.33" length="7.56" shape="30.22,18.37 34.30,23.44 34.27,24.48"/>
    </edge>
    <edge id=":gneJ10_8" function="internal">
        <lane id=":gneJ10_8_0" index="0" speed="8.33" length="17.43" shape="34.27,24.48 34.12,28.88 30.38,33.50 23.80,36.13"/>
    </edge>
    <edge id=":gneJ10_3" function="internal">
        <lane id=":gneJ10_3_0" index="0" speed="5.84" length="11.42" shape="22.79,29.81 26.89,28.81 28.88,27.44 28.77,25.71 26.55,23.61"/>
    </edge>
    <edge id=":gneJ10_4" function="internal">
        <lane id=":gneJ10_4_0" index="0" speed="7.97" length="23.75" shape="23.29,32.97 29.65,33.74 33.64,37.48 34.56,42.87 31.70,48.60"/>
    </edge>
    <edge id=":gneJ10_5" function="internal">
        <lane id=":gneJ10_5_0" index="0" speed="5.46" length="10.18" shape="26.98,44.27 28.98,41.59 29.21,39.86 27.64,39.10 24.30,39.29"/>
    </edge>
    <edge id=":gneJ10_6" function="internal">
        <lane id=":gneJ10_6_0" index="0" speed="9.85" length="24.29" shape="26.98,44.27 31.22,38.32 32.56,32.90 31.01,27.99 26.55,23.61"/>
        <lane id=":gneJ10_6_1" index="1" speed="10.89" length="29.95" shape="29.34,46.43 34.47,39.17 36.02,32.51 33.99,26.45 28.39,20.99"/>
    </edge>
    <edge id=":gneJ12_0" function="internal">
        <lane id=":gneJ12_0_0" index="0" speed="8.64" length="24.64" shape="-79.82,-36.73 -78.63,-43.72 -75.24,-48.30 -70.19,-49.77 -64.04,-47.40"/>
    </edge>
    <edge id=":gneJ12_1" function="internal">
        <lane id=":gneJ12_1_0" index="0" speed="5.97" length="10.97" shape="-67.70,-42.15 -70.25,-43.34 -72.05,-42.85 -73.11,-40.67 -73.42,-36.81"/>
        <lane id=":gneJ12_1_1" index="1" speed="6.86" length="14.99" shape="-67.70,-42.15 -71.66,-44.18 -74.46,-43.97 -76.12,-41.50 -76.62,-36.77"/>
    </edge>
    <edge id=":gneJ12_3" function="internal">
        <lane id=":gneJ12_3_0" index="0" speed="10.92" length="23.22" shape="-67.70,-42.15 -72.86,-44.64 -78.08,-44.96 -83.35,-43.10 -88.67,-39.06"/>
        <lane id=":gneJ12_3_1" index="1" speed="11.89" length="27.67" shape="-65.87,-44.77 -72.09,-47.81 -78.33,-48.26 -84.60,-46.11 -90.88,-41.37"/>
    </edge>
    <edge id=":gneJ12_5" function="internal">
        <lane id=":gneJ12_5_0" index="0" speed="13.61" length="36.57" shape="-95.31,-46.00 -87.10,-52.13 -78.84,-54.85 -70.55,-54.15 -62.21,-50.02"/>
        <lane id=":gneJ12_5_1" index="1" speed="12.78" length="32.12" shape="-93.09,-43.68 -85.85,-49.12 -78.59,-51.55 -71.32,-50.98 -64.04,-47.40"/>
    </edge>
    <edge id=":gneJ12_7" function="internal">
        <lane id=":gneJ12_7_0" index="0" speed="8.19" length="7.63" shape="-93.09,-43.68 -87.51,-46.90 -86.32,-46.81"/>
    </edge>
    <edge id=":gneJ12_8" function="internal">
        <lane id=":gneJ12_8_0" index="0" speed="8.19" length="15.86" shape="-86.32,-46.81 -82.22,-46.52 -78.24,-43.00 -76.62,-36.77"/>
    </edge>
    <edge id=":gneJ13_0" function="internal">
        <lane id=":gneJ13_0_0" index="0" speed="13.31" length="37.82" shape="-57.15,150.31 -65.36,157.30 -73.69,160.47 -82.14,159.82 -90.70,155.36"/>
        <lane id=":gneJ13_0_1" index="1" speed="12.47" length="33.05" shape="-59.51,148.15 -66.72,154.31 -74.01,157.14 -81.37,156.63 -88.80,152.78"/>
    </edge>
    <edge id=":gneJ13_2" function="internal">
        <lane id=":gneJ13_2_0" index="0" speed="8.12" length="7.49" shape="-59.51,148.15 -64.91,151.65 -65.97,151.62"/>
    </edge>
    <edge id=":gneJ13_8" function="internal">
        <lane id=":gneJ13_8_0" index="0" speed="8.12" length="16.11" shape="-65.97,151.62 -70.27,151.49 -74.44,148.10 -76.22,141.92"/>
    </edge>
    <edge id=":gneJ13_3" function="internal">
        <lane id=":gneJ13_3_0" index="0" speed="5.47" length="9.79" shape="-69.82,141.74 -69.39,144.85 -68.31,146.24 -66.59,145.89 -64.23,143.83"/>
    </edge>
    <edge id=":gneJ13_4" function="internal">
        <lane id=":gneJ13_4_0" index="0" speed="8.61" length="24.98" shape="-73.02,141.83 -74.16,148.93 -77.58,153.68 -82.67,155.25 -88.80,152.78"/>
    </edge>
    <edge id=":gneJ13_5" function="internal">
        <lane id=":gneJ13_5_0" index="0" speed="5.99" length="11.30" shape="-85.00,147.63 -82.46,148.90 -80.68,148.39 -79.67,146.09 -79.42,142.01"/>
    </edge>
    <edge id=":gneJ13_6" function="internal">
        <lane id=":gneJ13_6_0" index="0" speed="10.58" length="23.51" shape="-85.00,147.63 -79.84,150.25 -74.65,150.49 -69.45,148.35 -64.23,143.83"/>
        <lane id=":gneJ13_6_1" index="1" speed="11.56" length="28.28" shape="-86.90,150.21 -80.60,153.44 -74.33,153.81 -68.09,151.33 -61.87,145.99"/>
    </edge>
    <edge id=":gneJ8_0" function="internal">
        <lane id=":gneJ8_0_0" index="0" speed="12.79" length="42.81" shape="-191.15,81.21 -199.81,72.69 -202.42,64.29 -199.42,55.52 -191.25,45.93"/>
        <lane id=":gneJ8_0_1" index="1" speed="11.90" length="36.89" shape="-189.25,78.64 -196.67,71.30 -198.81,64.06 -196.12,56.51 -189.03,48.24"/>
    </edge>
    <edge id=":gneJ8_2" function="internal">
        <lane id=":gneJ8_2_0" index="0" speed="8.34" length="7.50" shape="-189.25,78.64 -193.17,73.41 -193.08,72.44"/>
    </edge>
    <edge id=":gneJ8_8" function="internal">
        <lane id=":gneJ8_8_0" index="0" speed="8.34" length="17.74" shape="-193.08,72.44 -192.69,67.96 -188.64,63.46 -181.86,61.09"/>
    </edge>
    <edge id=":gneJ8_3" function="internal">
        <lane id=":gneJ8_3_0" index="0" speed="5.89" length="11.72" shape="-181.12,67.44 -185.45,68.29 -187.61,69.58 -187.61,71.31 -185.45,73.49"/>
    </edge>
    <edge id=":gneJ8_4" function="internal">
        <lane id=":gneJ8_4_0" index="0" speed="7.94" length="23.77" shape="-181.49,64.27 -187.79,63.20 -191.59,59.23 -192.23,53.77 -189.03,48.24"/>
    </edge>
    <edge id=":gneJ8_5" function="internal">
        <lane id=":gneJ8_5_0" index="0" speed="5.46" length="10.30" shape="-184.61,52.86 -186.83,55.45 -187.17,57.15 -185.64,57.97 -182.23,57.91"/>
    </edge>
    <edge id=":gneJ8_6" function="internal">
        <lane id=":gneJ8_6_0" index="0" speed="9.77" length="24.50" shape="-184.61,52.86 -189.36,58.65 -191.08,64.02 -189.78,68.96 -185.45,73.49"/>
        <lane id=":gneJ8_6_1" index="1" speed="10.82" length="30.32" shape="-186.82,50.55 -192.58,57.63 -194.59,64.24 -192.85,70.39 -187.35,76.06"/>
    </edge>
    <edge id=":gneJ9_0" function="internal">
        <lane id=":gneJ9_0_0" index="0" speed="6.32" length="9.04" shape="-81.66,61.64 -82.09,59.17 -83.21,57.50 -85.02,56.63 -87.53,56.56"/>
    </edge>
    <edge id=":gneJ9_1" function="internal">
        <lane id=":gneJ9_1_0" index="0" speed="13.89" length="22.73" shape="-81.66,61.64 -81.33,55.31 -80.34,50.39 -79.33,45.46 -78.91,39.14"/>
    </edge>
    <edge id=":gneJ9_2" function="internal">
        <lane id=":gneJ9_2_0" index="0" speed="10.12" length="9.30" shape="-78.46,61.55 -77.82,56.00 -76.08,52.73"/>
    </edge>
    <edge id=":gneJ9_14" function="internal">
        <lane id=":gneJ9_14_0" index="0" speed="10.12" length="11.74" shape="-76.08,52.73 -75.56,51.76 -71.67,48.81 -66.16,47.15"/>
    </edge>
    <edge id=":gneJ9_3" function="internal">
        <lane id=":gneJ9_3_0" index="0" speed="7.66" length="11.65" shape="-65.15,53.47 -68.25,54.39 -70.43,56.01 -71.70,58.34 -72.07,61.37"/>
    </edge>
    <edge id=":gneJ9_4" function="internal">
        <lane id=":gneJ9_4_0" index="0" speed="13.89" length="22.52" shape="-65.15,53.47 -87.53,56.56"/>
        <lane id=":gneJ9_4_1" index="1" speed="13.89" length="22.52" shape="-65.66,50.31 -87.90,53.38"/>
    </edge>
    <edge id=":gneJ9_6" function="internal">
        <lane id=":gneJ9_6_0" index="0" speed="9.05" length="7.43" shape="-65.66,50.31 -71.39,50.39 -72.94,49.70"/>
    </edge>
    <edge id=":gneJ9_15" function="internal">
        <lane id=":gneJ9_15_0" index="0" speed="9.05" length="13.07" shape="-72.94,49.70 -75.51,48.56 -78.02,44.81 -78.91,39.14"/>
    </edge>
    <edge id=":gneJ9_7" function="internal">
        <lane id=":gneJ9_7_0" index="0" speed="13.89" length="22.63" shape="-72.51,39.06 -72.93,45.37 -73.95,50.26 -74.93,55.15 -75.26,61.46"/>
    </edge>
    <edge id=":gneJ9_8" function="internal">
        <lane id=":gneJ9_8_0" index="0" speed="10.00" length="9.77" shape="-75.71,39.10 -76.41,44.81 -78.29,48.36"/>
    </edge>
    <edge id=":gneJ9_16" function="internal">
        <lane id=":gneJ9_16_0" index="0" speed="10.00" length="11.19" shape="-78.29,48.36 -78.68,49.09 -82.51,51.95 -87.90,53.38"/>
    </edge>
    <edge id=":gneJ9_9" function="internal">
        <lane id=":gneJ9_9_0" index="0" speed="7.51" length="11.39" shape="-88.64,47.02 -85.75,46.24 -83.70,44.68 -82.48,42.32 -82.11,39.17"/>
        <lane id=":gneJ9_9_1" index="1" speed="8.23" length="13.87" shape="-88.64,47.02 -84.35,46.10 -81.30,44.48 -79.49,42.16 -78.91,39.14"/>
    </edge>
    <edge id=":gneJ9_11" function="internal">
        <lane id=":gneJ9_11_0" index="0" speed="13.89" length="22.26" shape="-88.64,47.02 -66.66,43.99"/>
        <lane id=":gneJ9_11_1" index="1" speed="13.89" length="22.26" shape="-88.27,50.20 -66.16,47.15"/>
    </edge>
    <edge id=":gneJ9_13" function="internal">
        <lane id=":gneJ9_13_0" index="0" speed="9.13" length="6.81" shape="-88.27,50.20 -82.71,50.35 -81.58,50.89"/>
    </edge>
    <edge id=":gneJ9_17" function="internal">
        <lane id=":gneJ9_17_0" index="0" speed="9.13" length="13.22" shape="-81.58,50.89 -78.69,52.28 -76.21,55.98 -75.26,61.46"/>
    </edge>

    <edge id="-gneE10" from="gneJ13" to="gneJ8" priority="-1">
        <lane id="-gneE10_0" index="0" speed="13.89" length="124.85" shape="-90.70,155.36 -191.15,81.21"/>
        <lane id="-gneE10_1" index="1" speed="13.89" length="124.85" shape="-88.80,152.78 -189.25,78.64"/>
    </edge>
    <edge id="-gneE11" from="gneJ10" to="gneJ13" priority="-1">
        <lane id="-gneE11_0" index="0" speed="13.89" length="135.02" shape="34.05,50.76 -57.15,150.31"/>
        <lane id="-gneE11_1" index="1" speed="13.89" length="135.02" shape="31.70,48.60 -59.51,148.15"/>
    </edge>
    <edge id="-gneE12" from="gneJ9" to="gneJ13" priority="-1">
        <lane id="-gneE12_0" index="0" speed="13.89" length="80.40" shape="-72.07,61.37 -69.82,141.74"/>
        <lane id="-gneE12_1" index="1" speed="13.89" length="80.40" shape="-75.26,61.46 -73.02,141.83"/>
    </edge>
    <edge id="-gneE5" from="gneJ9" to="gneJ8" priority="-1">
        <lane id="-gneE5_0" index="0" speed="13.89" length="94.22" shape="-87.53,56.56 -181.12,67.44"/>
        <lane id="-gneE5_1" index="1" speed="13.89" length="94.22" shape="-87.90,53.38 -181.49,64.27"/>
    </edge>
    <edge id="-gneE6" from="gneJ10" to="gneJ9" priority="-1">
        <lane id="-gneE6_0" index="0" speed="13.89" length="90.57" shape="24.30,39.29 -65.15,53.47"/>
        <lane id="-gneE6_1" index="1" speed="13.89" length="90.57" shape="23.80,36.13 -65.66,50.31"/>
    </edge>
    <edge id="-gneE7" from="gneJ12" to="gneJ8" priority="-1">
        <lane id="-gneE7_0" index="0" speed="13.89" length="132.87" shape="-88.67,-39.06 -184.61,52.86"/>
        <lane id="-gneE7_1" index="1" speed="13.89" length="132.87" shape="-90.88,-41.37 -186.82,50.55"/>
    </edge>
    <edge id="-gneE8" from="gneJ10" to="gneJ12" priority="-1">
        <lane id="-gneE8_0" index="0" speed="13.89" length="114.93" shape="26.55,23.61 -67.70,-42.15"/>
        <lane id="-gneE8_1" index="1" speed="13.89" length="114.93" shape="28.39,20.99 -65.87,-44.77"/>
    </edge>
    <edge id="-gneE9" from="gneJ12" to="gneJ9" priority="-1">
        <lane id="-gneE9_0" index="0" speed="13.89" length="75.88" shape="-73.42,-36.81 -72.51,39.06"/>
        <lane id="-gneE9_1" index="1" speed="13.89" length="75.88" shape="-76.62,-36.77 -75.71,39.10"/>
    </edge>
    <edge id="gneE10" from="gneJ8" to="gneJ13" priority="-1">
        <lane id="gneE10_0" index="0" speed="13.89" length="124.85" shape="-185.45,73.49 -85.00,147.63"/>
        <lane id="gneE10_1" index="1" speed="13.89" length="124.85" shape="-187.35,76.06 -86.90,150.21"/>
    </edge>
    <edge id="gneE11" from="gneJ13" to="gneJ10" priority="-1">
        <lane id="gneE11_0" index="0" speed="13.89" length="135.02" shape="-64.23,143.83 26.98,44.27"/>
        <lane id="gneE11_1" index="1" speed="13.89" length="135.02" shape="-61.87,145.99 29.34,46.43"/>
    </edge>
    <edge id="gneE12" from="gneJ13" to="gneJ9" priority="-1">
        <lane id="gneE12_0" index="0" speed="13.89" length="80.40" shape="-79.42,142.01 -81.66,61.64"/>
        <lane id="gneE12_1" index="1" speed="13.89" length="80.40" shape="-76.22,141.92 -78.46,61.55"/>
    </edge>
    <edge id="gneE5" from="gneJ8" to="gneJ9" priority="-1">
        <lane id="gneE5_0" index="0" speed="13.89" length="94.22" shape="-182.23,57.91 -88.64,47.02"/>
        <lane id="gneE5_1" index="1" speed="13.89" length="94.22" shape="-181.86,61.09 -88.27,50.20"/>
    </edge>
    <edge id="gneE6" from="gneJ9" to="gneJ10" priority="-1">
        <lane id="gneE6_0" index="0" speed="13.89" length="90.57" shape="-66.66,43.99 22.79,29.81"/>
        <lane id="gneE6_1" index="1" speed="13.89" length="90.57" shape="-66.16,47.15 23.29,32.97"/>
    </edge>
    <edge id="gneE7" from="gneJ8" to="gneJ12" priority="-1">
        <lane id="gneE7_0" index="0" speed="13.89" length="132.87" shape="-191.25,45.93 -95.31,-46.00"/>
        <lane id="gneE7_1" index="1" speed="13.89" length="132.87" shape="-189.03,48.24 -93.09,-43.68"/>
    </edge>
    <edge id="gneE8" from="gneJ12" to="gneJ10" priority="-1">
        <lane id="gneE8_0" index="0" speed="13.89" length="114.93" shape="-62.21,-50.02 32.05,15.74"/>
        <lane id="gneE8_1" index="1" speed="13.89" length="114.93" shape="-64.04,-47.40 30.22,18.37"/>
    </edge>
    <edge id="gneE9" from="gneJ9" to="gneJ12" priority="-1">
        <lane id="gneE9_0" index="0" speed="13.89" length="75.88" shape="-82.11,39.17 -83.02,-36.70"/>
        <lane id="gneE9_1" index="1" speed="13.89" length="75.88" shape="-78.91,39.14 -79.82,-36.73"/>
    </edge>

    <tlLogic id="gneJ9" type="static" programID="0" offset="0">
        <phase duration="38" state="GGgrrrrGgrrrrr"/>
        <phase duration="3"  state="yygrrrrygrrrrr"/>
        <phase duration="6"  state="rrGrrrrrGrrrrr"/>
        <phase duration="3"  state="rryrrrrryrrrrr"/>
        <phase duration="37" state="rrrGGGgrrGGGGg"/>
        <phase duration="3"  state="rrryyyyrryyyyy"/>
    </tlLogic>

    <junction id="gneJ10" type="priority" x="45.60" y="31.05" incLanes="gneE8_0 gneE8_1 gneE6_0 gneE6_1 gneE11_0 gneE11_1" intLanes=":gneJ10_0_0 :gneJ10_0_1 :gneJ10_8_0 :gneJ10_3_0 :gneJ10_4_0 :gneJ10_5_0 :gneJ10_6_0 :gneJ10_6_1" shape="32.96,14.43 25.64,24.93 26.75,26.31 26.50,26.90 25.72,27.41 24.40,27.85 22.54,28.23 24.55,40.87 26.44,40.85 26.84,41.14 26.86,41.62 26.51,42.31 25.80,43.19 35.23,51.84 40.73,44.73 43.88,37.97 44.68,31.56 43.12,25.50 39.22,19.79">
        <request index="0" response="00000000" foes="00010000" cont="0"/>
        <request index="1" response="00000000" foes="00010000" cont="0"/>
        <request index="2" response="11000000" foes="11010000" cont="1"/>
        <request index="3" response="11000000" foes="11000000" cont="0"/>
        <request index="4" response="11000111" foes="11000111" cont="0"/>
        <request index="5" response="00000000" foes="00000000" cont="0"/>
        <request index="6" response="00000000" foes="00011100" cont="0"/>
        <request index="7" response="00000000" foes="00011100" cont="0"/>
    </junction>
    <junction id="gneJ12" type="priority" x="-78.45" y="-55.50" incLanes="gneE9_0 gneE9_1 -gneE8_0 -gneE8_1 gneE7_0 gneE7_1" intLanes=":gneJ12_0_0 :gneJ12_1_0 :gneJ12_1_1 :gneJ12_3_0 :gneJ12_3_1 :gneJ12_5_0 :gneJ12_5_1 :gneJ12_8_0" shape="-84.62,-36.68 -71.82,-36.83 -71.50,-40.07 -71.06,-40.98 -70.43,-41.41 -69.62,-41.36 -68.62,-40.84 -61.30,-51.34 -67.21,-54.67 -73.11,-56.39 -78.97,-56.50 -84.81,-54.99 -90.63,-51.88 -96.42,-47.15 -87.56,-37.91 -85.95,-39.00 -85.38,-38.98 -84.97,-38.59 -84.72,-37.82">
        <request index="0" response="11111000" foes="11111000" cont="0"/>
        <request index="1" response="00000000" foes="10000000" cont="0"/>
        <request index="2" response="00000000" foes="10000000" cont="0"/>
        <request index="3" response="00000000" foes="10000001" cont="0"/>
        <request index="4" response="00000000" foes="10000001" cont="0"/>
        <request index="5" response="00000000" foes="00000001" cont="0"/>
        <request index="6" response="00000000" foes="00000001" cont="0"/>
        <request index="7" response="00011110" foes="00011111" cont="1"/>
    </junction>
    <junction id="gneJ13" type="priority" x="-74.07" y="161.67" incLanes="-gneE11_0 -gneE11_1 -gneE12_0 -gneE12_1 gneE10_0 gneE10_1" intLanes=":gneJ13_0_0 :gneJ13_0_1 :gneJ13_8_0 :gneJ13_3_0 :gneJ13_4_0 :gneJ13_5_0 :gneJ13_6_0 :gneJ13_6_1" shape="-55.97,151.39 -65.41,142.74 -66.92,143.94 -67.47,143.96 -67.86,143.59 -68.12,142.84 -68.22,141.70 -81.02,142.05 -81.27,145.49 -81.68,146.46 -82.28,146.93 -83.07,146.89 -84.05,146.35 -91.65,156.65 -85.55,160.28 -79.51,162.10 -73.53,162.13 -67.61,160.35 -61.76,156.77">
        <request index="0" response="00000000" foes="00010000" cont="0"/>
        <request index="1" response="00000000" foes="00010000" cont="0"/>
        <request index="2" response="11000000" foes="11010000" cont="1"/>
        <request index="3" response="11000000" foes="11000000" cont="0"/>
        <request index="4" response="11000111" foes="11000111" cont="0"/>
        <request index="5" response="00000000" foes="00000000" cont="0"/>
        <request index="6" response="00000000" foes="00011100" cont="0"/>
        <request index="7" response="00000000" foes="00011100" cont="0"/>
    </junction>
    <junction id="gneJ8" type="priority" x="-204.57" y="65.34" incLanes="-gneE10_0 -gneE10_1 -gneE5_0 -gneE5_1 -gneE7_0 -gneE7_1" intLanes=":gneJ8_0_0 :gneJ8_0_1 :gneJ8_8_0 :gneJ8_3_0 :gneJ8_4_0 :gneJ8_5_0 :gneJ8_6_0 :gneJ8_6_1" shape="-192.10,82.50 -184.50,72.20 -185.54,70.79 -185.22,70.22 -184.35,69.74 -182.92,69.34 -180.93,69.03 -182.41,56.32 -184.30,56.27 -184.67,55.97 -184.66,55.50 -184.27,54.85 -183.50,54.01 -192.35,44.77 -198.49,51.71 -202.16,58.39 -203.36,64.81 -202.08,70.96 -198.33,76.86">
        <request index="0" response="00000000" foes="00010000" cont="0"/>
        <request index="1" response="00000000" foes="00010000" cont="0"/>
        <request index="2" response="11000000" foes="11010000" cont="1"/>
        <request index="3" response="11000000" foes="11000000" cont="0"/>
        <request index="4" response="11000111" foes="11000111" cont="0"/>
        <request index="5" response="00000000" foes="00000000" cont="0"/>
        <request index="6" response="00000000" foes="00011100" cont="0"/>
        <request index="7" response="00000000" foes="00011100" cont="0"/>
    </junction>
    <junction id="gneJ9" type="traffic_light" x="-77.17" y="50.52" incLanes="gneE12_0 gneE12_1 -gneE6_0 -gneE6_1 -gneE9_0 -gneE9_1 gneE5_0 gneE5_1" intLanes=":gneJ9_0_0 :gneJ9_1_0 :gneJ9_14_0 :gneJ9_3_0 :gneJ9_4_0 :gneJ9_4_1 :gneJ9_15_0 :gneJ9_7_0 :gneJ9_16_0 :gneJ9_9_0 :gneJ9_9_1 :gneJ9_11_0 :gneJ9_11_1 :gneJ9_17_0" shape="-83.26,61.68 -70.47,61.33 -69.91,58.24 -69.15,57.08 -68.06,56.15 -66.65,55.48 -64.90,55.05 -66.91,42.41 -69.11,42.32 -69.88,41.88 -70.44,41.19 -70.78,40.24 -70.91,39.04 -83.71,39.19 -84.25,42.39 -84.95,43.57 -85.95,44.47 -87.24,45.09 -88.82,45.43 -87.35,58.15 -85.13,58.33 -84.34,58.80 -83.76,59.51 -83.41,60.47">
        <request index="0"  response="00000000000000" foes="00000000110000" cont="0"/>
        <request index="1"  response="10000001000000" foes="11111101110000" cont="0"/>
        <request index="2"  response="10000011000000" foes="11100011110000" cont="1"/>
        <request index="3"  response="00000000000000" foes="00000000000000" cont="0"/>
        <request index="4"  response="00000110000111" foes="10000110000111" cont="0"/>
        <request index="5"  response="00000110000111" foes="10000110000111" cont="0"/>
        <request index="6"  response="01111110000110" foes="01111110000110" cont="1"/>
        <request index="7"  response="10000001000000" foes="11100001110100" cont="0"/>
        <request index="8"  response="10000001000010" foes="11100001110010" cont="1"/>
        <request index="9"  response="00000000000010" foes="00000001000010" cont="0"/>
        <request index="10" response="00000000000010" foes="00000001000010" cont="0"/>
        <request index="11" response="00000110000110" foes="00000111000110" cont="0"/>
        <request index="12" response="00000110000110" foes="00000111000110" cont="0"/>
        <request index="13" response="00000110110110" foes="00000110110110" cont="1"/>
    </junction>

    <junction id=":gneJ10_8_0" type="internal" x="34.27" y="24.48" incLanes=":gneJ10_2_0 gneE11_0 gneE11_1" intLanes=":gneJ10_4_0 :gneJ10_6_0 :gneJ10_6_1"/>
    <junction id=":gneJ12_8_0" type="internal" x="-86.32" y="-46.81" incLanes=":gneJ12_7_0 -gneE8_0 -gneE8_1" intLanes=":gneJ12_0_0 :gneJ12_1_0 :gneJ12_1_1 :gneJ12_3_0 :gneJ12_3_1"/>
    <junction id=":gneJ13_8_0" type="internal" x="-65.97" y="151.62" incLanes=":gneJ13_2_0 gneE10_0 gneE10_1" intLanes=":gneJ13_4_0 :gneJ13_6_0 :gneJ13_6_1"/>
    <junction id=":gneJ8_8_0" type="internal" x="-193.08" y="72.44" incLanes=":gneJ8_2_0 -gneE7_0 -gneE7_1" intLanes=":gneJ8_4_0 :gneJ8_6_0 :gneJ8_6_1"/>
    <junction id=":gneJ9_14_0" type="internal" x="-76.08" y="52.73" incLanes=":gneJ9_2_0 -gneE9_0" intLanes=":gneJ9_4_0 :gneJ9_4_1 :gneJ9_6_0 :gneJ9_7_0 :gneJ9_11_0 :gneJ9_11_1 :gneJ9_13_0"/>
    <junction id=":gneJ9_15_0" type="internal" x="-72.94" y="49.70" incLanes=":gneJ9_6_0 gneE5_0 gneE5_1" intLanes=":gneJ9_1_0 :gneJ9_2_0 :gneJ9_7_0 :gneJ9_8_0 :gneJ9_9_0 :gneJ9_9_1 :gneJ9_11_0 :gneJ9_11_1"/>
    <junction id=":gneJ9_16_0" type="internal" x="-78.29" y="48.36" incLanes=":gneJ9_8_0 gneE12_0" intLanes=":gneJ9_0_0 :gneJ9_1_0 :gneJ9_4_0 :gneJ9_4_1 :gneJ9_6_0 :gneJ9_11_0 :gneJ9_11_1 :gneJ9_13_0"/>
    <junction id=":gneJ9_17_0" type="internal" x="-81.58" y="50.89" incLanes=":gneJ9_13_0 -gneE6_0 -gneE6_1" intLanes=":gneJ9_1_0 :gneJ9_2_0 :gneJ9_3_0 :gneJ9_4_0 :gneJ9_4_1 :gneJ9_7_0 :gneJ9_8_0"/>

    <connection from="-gneE10" to="gneE7" fromLane="0" toLane="0" via=":gneJ8_0_0" dir="l" state="M"/>
    <connection from="-gneE10" to="gneE7" fromLane="1" toLane="1" via=":gneJ8_0_1" dir="l" state="M"/>
    <connection from="-gneE10" to="gneE5" fromLane="1" toLane="1" via=":gneJ8_2_0" dir="l" state="m"/>
    <connection from="-gneE11" to="-gneE10" fromLane="0" toLane="0" via=":gneJ13_0_0" dir="L" state="M"/>
    <connection from="-gneE11" to="-gneE10" fromLane="1" toLane="1" via=":gneJ13_0_1" dir="L" state="M"/>
    <connection from="-gneE11" to="gneE12" fromLane="1" toLane="1" via=":gneJ13_2_0" dir="l" state="m"/>
    <connection from="-gneE12" to="gneE11" fromLane="0" toLane="0" via=":gneJ13_3_0" dir="r" state="m"/>
    <connection from="-gneE12" to="-gneE10" fromLane="1" toLane="1" via=":gneJ13_4_0" dir="l" state="m"/>
    <connection from="-gneE5" to="gneE10" fromLane="0" toLane="0" via=":gneJ8_3_0" dir="r" state="m"/>
    <connection from="-gneE5" to="gneE7" fromLane="1" toLane="1" via=":gneJ8_4_0" dir="l" state="m"/>
    <connection from="-gneE6" to="-gneE12" fromLane="0" toLane="0" via=":gneJ9_3_0" tl="gneJ9" linkIndex="3" dir="r" state="O"/>
    <connection from="-gneE6" to="-gneE5" fromLane="0" toLane="0" via=":gneJ9_4_0" tl="gneJ9" linkIndex="4" dir="s" state="o"/>
    <connection from="-gneE6" to="-gneE5" fromLane="1" toLane="1" via=":gneJ9_4_1" tl="gneJ9" linkIndex="5" dir="s" state="o"/>
    <connection from="-gneE6" to="gneE9" fromLane="1" toLane="1" via=":gneJ9_6_0" tl="gneJ9" linkIndex="6" dir="l" state="o"/>
    <connection from="-gneE7" to="gneE5" fromLane="0" toLane="0" via=":gneJ8_5_0" dir="r" state="M"/>
    <connection from="-gneE7" to="gneE10" fromLane="0" toLane="0" via=":gneJ8_6_0" dir="r" state="M"/>
    <connection from="-gneE7" to="gneE10" fromLane="1" toLane="1" via=":gneJ8_6_1" dir="r" state="M"/>
    <connection from="-gneE8" to="-gneE9" fromLane="0" toLane="0" via=":gneJ12_1_0" dir="r" state="M"/>
    <connection from="-gneE8" to="-gneE9" fromLane="0" toLane="1" via=":gneJ12_1_1" dir="r" state="M"/>
    <connection from="-gneE8" to="-gneE7" fromLane="0" toLane="0" via=":gneJ12_3_0" dir="R" state="M"/>
    <connection from="-gneE8" to="-gneE7" fromLane="1" toLane="1" via=":gneJ12_3_1" dir="R" state="M"/>
    <connection from="-gneE9" to="-gneE12" fromLane="0" toLane="1" via=":gneJ9_7_0" tl="gneJ9" linkIndex="7" dir="s" state="O"/>
    <connection from="-gneE9" to="-gneE5" fromLane="1" toLane="1" via=":gneJ9_8_0" tl="gneJ9" linkIndex="8" dir="l" state="o"/>
    <connection from="gneE10" to="gneE12" fromLane="0" toLane="0" via=":gneJ13_5_0" dir="r" state="M"/>
    <connection from="gneE10" to="gneE11" fromLane="0" toLane="0" via=":gneJ13_6_0" dir="R" state="M"/>
    <connection from="gneE10" to="gneE11" fromLane="1" toLane="1" via=":gneJ13_6_1" dir="R" state="M"/>
    <connection from="gneE11" to="-gneE6" fromLane="0" toLane="0" via=":gneJ10_5_0" dir="r" state="M"/>
    <connection from="gneE11" to="-gneE8" fromLane="0" toLane="0" via=":gneJ10_6_0" dir="r" state="M"/>
    <connection from="gneE11" to="-gneE8" fromLane="1" toLane="1" via=":gneJ10_6_1" dir="r" state="M"/>
    <connection from="gneE12" to="-gneE5" fromLane="0" toLane="0" via=":gneJ9_0_0" tl="gneJ9" linkIndex="0" dir="r" state="O"/>
    <connection from="gneE12" to="gneE9" fromLane="0" toLane="1" via=":gneJ9_1_0" tl="gneJ9" linkIndex="1" dir="s" state="O"/>
    <connection from="gneE12" to="gneE6" fromLane="1" toLane="1" via=":gneJ9_2_0" tl="gneJ9" linkIndex="2" dir="l" state="o"/>
    <connection from="gneE5" to="gneE9" fromLane="0" toLane="0" via=":gneJ9_9_0" tl="gneJ9" linkIndex="9" dir="r" state="o"/>
    <connection from="gneE5" to="gneE9" fromLane="0" toLane="1" via=":gneJ9_9_1" tl="gneJ9" linkIndex="10" dir="r" state="o"/>
    <connection from="gneE5" to="gneE6" fromLane="0" toLane="0" via=":gneJ9_11_0" tl="gneJ9" linkIndex="11" dir="s" state="o"/>
    <connection from="gneE5" to="gneE6" fromLane="1" toLane="1" via=":gneJ9_11_1" tl="gneJ9" linkIndex="12" dir="s" state="o"/>
    <connection from="gneE5" to="-gneE12" fromLane="1" toLane="1" via=":gneJ9_13_0" tl="gneJ9" linkIndex="13" dir="l" state="o"/>
    <connection from="gneE6" to="-gneE8" fromLane="0" toLane="0" via=":gneJ10_3_0" dir="r" state="m"/>
    <connection from="gneE6" to="-gneE11" fromLane="1" toLane="1" via=":gneJ10_4_0" dir="l" state="m"/>
    <connection from="gneE7" to="gneE8" fromLane="0" toLane="0" via=":gneJ12_5_0" dir="L" state="M"/>
    <connection from="gneE7" to="gneE8" fromLane="1" toLane="1" via=":gneJ12_5_1" dir="L" state="M"/>
    <connection from="gneE7" to="-gneE9" fromLane="1" toLane="1" via=":gneJ12_7_0" dir="l" state="m"/>
    <connection from="gneE8" to="-gneE11" fromLane="0" toLane="0" via=":gneJ10_0_0" dir="l" state="M"/>
    <connection from="gneE8" to="-gneE11" fromLane="1" toLane="1" via=":gneJ10_0_1" dir="l" state="M"/>
    <connection from="gneE8" to="-gneE6" fromLane="1" toLane="1" via=":gneJ10_2_0" dir="l" state="m"/>
    <connection from="gneE9" to="gneE8" fromLane="1" toLane="1" via=":gneJ12_0_0" dir="l" state="m"/>

    <connection from=":gneJ10_0" to="-gneE11" fromLane="0" toLane="0" dir="l" state="M"/>
    <connection from=":gneJ10_0" to="-gneE11" fromLane="1" toLane="1" dir="l" state="M"/>
    <connection from=":gneJ10_2" to="-gneE6" fromLane="0" toLane="1" via=":gneJ10_8_0" dir="l" state="m"/>
    <connection from=":gneJ10_8" to="-gneE6" fromLane="0" toLane="1" dir="l" state="M"/>
    <connection from=":gneJ10_3" to="-gneE8" fromLane="0" toLane="0" dir="r" state="M"/>
    <connection from=":gneJ10_4" to="-gneE11" fromLane="0" toLane="1" dir="l" state="M"/>
    <connection from=":gneJ10_5" to="-gneE6" fromLane="0" toLane="0" dir="r" state="M"/>
    <connection from=":gneJ10_6" to="-gneE8" fromLane="0" toLane="0" dir="r" state="M"/>
    <connection from=":gneJ10_6" to="-gneE8" fromLane="1" toLane="1" dir="r" state="M"/>
    <connection from=":gneJ12_0" to="gneE8" fromLane="0" toLane="1" dir="l" state="M"/>