<?xml version="1.0" encoding="UTF-8"?>

<!-- generated on 2021-09-01 14:06:28 by Eclipse SUMO netedit Version 1.10.0
<configuration xmlns:xsi="http://www.w3.org/2001/XMLSchema-instance" xsi:noNamespaceSchemaLocation="http://sumo.dlr.de/xsd/netconvertConfiguration.xsd">

    <input>
        <sumo-net-file value="/home/jeff/ubuntu2/SUMO/double_circle/double_circle.net.xml"/>
    </input>

    <output>
        <output-file value="/home/jeff/ubuntu2/SUMO/double_circle/double_circle.net.xml"/>
    </output>

    <processing>
        <geometry.min-radius.fix.railways value="false"/>
        <geometry.max-grade.fix value="false"/>
        <offset.disable-normalization value="true"/>
        <lefthand value="false"/>
    </processing>

    <junctions>
        <no-turnarounds value="true"/>
        <junctions.corner-detail value="5"/>
        <junctions.limit-turn-speed value="5.5"/>
        <rectangular-lane-cut value="false"/>
    </junctions>

    <pedestrian>
        <walkingareas value="false"/>
    </pedestrian>

    <netedit>
        <additional-files value="/home/jeff/ubuntu2/SUMO/double_circle/double_circle.add.xml"/>
        <route-files value="/home/jeff/ubuntu2/SUMO/double_circle/double_circle.rou.xml"/>
    </netedit>

    <report>
        <aggregate-warnings value="5"/>
    </report>

</configuration>
-->

<routes xmlns:xsi="http://www.w3.org/2001/XMLSchema-instance" xsi:noNamespaceSchemaLocation="http://sumo.dlr.de/xsd/routes_file.xsd">
    <route edges="gneE6 gneE0 gneE1 gneE2 gneE3" color="yellow" id="route_0"/>
    <route edges="gneE9 gneE10 gneE11 gneE3 gneE4" color="yellow" id="route_1"/>
    <flow id="flow_0" begin="0.00" route="route_0" end="0.00" number="10"/>
    <flow id="flow_1" begin="0.00" route="route_1" end="0.00" number="10"/>
</routes>
