<?xml version="1.0" encoding="UTF-8"?>

<!-- generated on 2021-09-01 13:19:16 by Eclipse SUMO netedit Version 1.10.0
<configuration xmlns:xsi="http://www.w3.org/2001/XMLSchema-instance" xsi:noNamespaceSchemaLocation="http://sumo.dlr.de/xsd/netconvertConfiguration.xsd">

    <input>
        <sumo-net-file value="/home/jeff/ubuntu2/SUMO/double_circle/double_circle.net.xml"/>
    </input>

    <output>
        <output-file value="/home/jeff/ubuntu2/SUMO/double_circle/double_circle.net.xml"/>
    </output>

    <processing>
        <geometry.min-radius.fix.railways value="false"/>
        <geometry.max-grade.fix value="false"/>
        <offset.disable-normalization value="true"/>
        <lefthand value="false"/>
    </processing>

    <junctions>
        <no-turnarounds value="true"/>
        <junctions.corner-detail value="5"/>
        <junctions.limit-turn-speed value="5.5"/>
        <rectangular-lane-cut value="false"/>
    </junctions>

    <pedestrian>
        <walkingareas value="false"/>
    </pedestrian>

    <netedit>
        <additional-files value="/home/jeff/ubuntu2/SUMO/double_circle/double_circle.add.xml"/>
        <route-files value="/home/jeff/ubuntu2/SUMO/double_circle/double_circle.rou.xml"/>
    </netedit>

    <report>
        <aggregate-warnings value="5"/>
    </report>

</configuration>
-->

<net version="1.9" junctionCornerDetail="5" limitTurnSpeed="5.50" xmlns:xsi="http://www.w3.org/2001/XMLSchema-instance" xsi:noNamespaceSchemaLocation="http://sumo.dlr.de/xsd/net_file.xsd">

    <location netOffset="0.00,0.00" convBoundary="-14.45,6.06,99.82,86.92" origBoundary="-10000000000.00,-10000000000.00,10000000000.00,10000000000.00" projParameter="!"/>

    <edge id=":gneJ0_0" function="internal">
        <lane id=":gneJ0_0_0" index="0" speed="13.89" length="0.91" shape="30.24,85.11 30.49,85.19 30.68,85.22 30.86,85.20 31.13,85.14"/>
    </edge>
    <edge id=":gneJ1_0" function="internal">
        <lane id=":gneJ1_0_0" index="0" speed="8.01" length="4.83" shape="48.27,80.79 49.39,80.48 50.14,80.15 50.76,79.63 51.52,78.75"/>
        <lane id=":gneJ1_0_1" index="1" speed="9.52" length="4.83" shape="48.27,80.79 53.98,80.80"/>
    </edge>
    <edge id=":gneJ10_0" function="internal">
        <lane id=":gneJ10_0_0" index="0" speed="6.12" length="6.61" shape="104.56,31.92 104.61,33.68 104.13,35.15 103.12,36.31 101.57,37.17"/>
        <lane id=":gneJ10_0_1" index="1" speed="3.93" length="2.20" shape="101.40,32.44 101.42,33.03 101.26,33.52 100.92,33.90 100.40,34.19"/>
    </edge>
    <edge id=":gneJ2_0" function="internal">
        <lane id=":gneJ2_0_0" index="0" speed="3.43" length="1.41" shape="65.39,62.18 65.73,61.90 66.06,61.71 66.25,61.51 66.16,61.21"/>
        <lane id=":gneJ2_0_1" index="1" speed="5.69" length="5.37" shape="67.84,64.24 68.79,62.86 69.26,61.59 69.25,60.42 68.77,59.35"/>
    </edge>
    <edge id=":gneJ3_0" function="internal">
        <lane id=":gneJ3_0_0" index="0" speed="12.35" length="10.80" shape="66.05,61.05 64.14,59.09 62.30,58.43 60.13,58.21 57.25,57.57"/>
        <lane id=":gneJ3_0_1" index="1" speed="13.50" length="10.80" shape="68.65,59.19 66.40,56.76 64.24,55.81 61.70,55.38 58.27,54.54"/>
    </edge>
    <edge id=":gneJ3_2" function="internal">
        <lane id=":gneJ3_2_0" index="0" speed="10.19" length="6.78" shape="66.89,50.78 64.71,51.65 63.11,52.12 61.51,52.10 59.29,51.51"/>
        <lane id=":gneJ3_2_1" index="1" speed="8.68" length="6.78" shape="65.72,47.80 64.17,48.45 63.04,48.84 61.89,48.88 60.32,48.48"/>
    </edge>
    <edge id=":gneJ4_0" function="internal">
        <lane id=":gneJ4_0_0" index="0" speed="4.37" length="4.32" shape="27.30,47.46 27.00,47.36 26.78,47.33 26.56,47.37 26.25,47.46"/>
        <lane id=":gneJ4_0_1" index="1" speed="6.97" length="4.32" shape="28.32,44.43 27.41,44.14 26.75,44.05 26.09,44.15 25.19,44.45"/>
        <lane id=":gneJ4_0_2" index="2" speed="8.83" length="4.32" shape="29.35,41.39 27.83,40.92 26.73,40.77 25.63,40.94 24.12,41.43"/>
        <lane id=":gneJ4_0_3" index="3" speed="10.36" length="4.32" shape="30.37,38.36 28.25,37.70 26.70,37.49 25.16,37.73 23.05,38.41"/>
    </edge>
    <edge id=":gneJ5_0" function="internal">
        <lane id=":gneJ5_0_0" index="0" speed="7.24" length="9.84" shape="8.24,53.84 6.38,54.95 5.21,56.71 4.73,59.14 4.93,62.22"/>
        <lane id=":gneJ5_0_1" index="1" speed="8.62" length="14.33" shape="7.17,50.82 4.24,52.48 2.37,55.02 1.54,58.43 1.77,62.72"/>
    </edge>
    <edge id=":gneJ5_2" function="internal">
        <lane id=":gneJ5_2_0" index="0" speed="9.44" length="15.69" shape="6.10,47.81 1.29,49.07 -2.74,49.18 -5.97,48.13 -8.40,45.92"/>
        <lane id=":gneJ5_2_1" index="1" speed="8.19" length="11.60" shape="5.04,44.79 1.29,45.83 -1.77,46.05 -4.14,45.45 -5.82,44.03"/>
    </edge>
    <edge id=":gneJ6_0" function="internal">
        <lane id=":gneJ6_0_0" index="0" speed="7.64" length="8.18" shape="3.70,74.79 4.24,75.69 5.58,76.65 7.72,77.66 10.66,78.72"/>
    </edge>
    <edge id=":gneJ7_0" function="internal">
        <lane id=":gneJ7_0_0" index="0" speed="6.17" length="6.07" shape="-18.33,32.32 -19.10,30.91 -19.36,29.51 -19.11,28.10 -18.35,26.69"/>
        <lane id=":gneJ7_0_1" index="1" speed="3.95" length="2.02" shape="-15.74,30.43 -16.00,29.96 -16.09,29.50 -16.00,29.03 -15.75,28.56"/>
    </edge>
    <edge id=":gneJ8_0" function="internal">
        <lane id=":gneJ8_0_0" index="0" speed="6.49" length="4.19" shape="-6.81,10.64 -6.10,9.83 -5.27,9.23 -4.33,8.84 -3.27,8.65"/>
        <lane id=":gneJ8_0_1" index="1" speed="4.12" length="1.40" shape="-4.21,12.51 -3.97,12.24 -3.70,12.04 -3.38,11.91 -3.03,11.84"/>
    </edge>
    <edge id=":gneJ9_0" function="internal">
        <lane id=":gneJ9_0_0" index="0" speed="6.09" length="7.25" shape="95.06,1.27 97.02,1.40 98.52,2.11 99.57,3.40 100.16,5.28"/>
        <lane id=":gneJ9_0_1" index="1" speed="3.91" length="2.42" shape="95.30,4.46 95.95,4.51 96.45,4.74 96.80,5.17 97.00,5.80"/>
    </edge>

    <edge id="gneE0" from="gneJ0" to="gneJ1" priority="-1">
        <lane id="gneE0_0" index="0" speed="13.89" length="17.69" shape="31.13,85.14 48.27,80.79"/>
    </edge>
    <edge id="gneE1" from="gneJ1" to="gneJ2" priority="-1">
        <lane id="gneE1_0" index="0" speed="13.89" length="21.60" shape="51.52,78.75 65.39,62.18"/>
        <lane id="gneE1_1" index="1" speed="13.89" length="21.60" shape="53.98,80.80 67.84,64.24"/>
    </edge>
    <edge id="gneE10" from="gneJ9" to="gneJ10" priority="-1">
        <lane id="gneE10_0" index="0" speed="13.89" length="27.00" shape="100.16,5.28 104.56,31.92"/>
        <lane id="gneE10_1" index="1" speed="13.89" length="27.00" shape="97.00,5.80 101.40,32.44"/>
    </edge>
    <edge id="gneE11" from="gneJ10" to="gneJ3" priority="-1">
        <lane id="gneE11_0" index="0" speed="13.89" length="37.26" shape="101.57,37.17 66.89,50.78"/>
        <lane id="gneE11_1" index="1" speed="13.89" length="37.26" shape="100.40,34.19 65.72,47.80"/>
    </edge>
    <edge id="gneE2" from="gneJ2" to="gneJ3" priority="-1">
        <lane id="gneE2_0" index="0" speed="13.89" length="0.20" shape="66.16,61.21 66.05,61.05"/>
        <lane id="gneE2_1" index="1" speed="13.89" length="0.20" shape="68.77,59.35 68.65,59.19"/>
    </edge>
    <edge id="gneE3" from="gneJ3" to="gneJ4" priority="-1">
        <lane id="gneE3_0" index="0" speed="13.89" length="31.61" shape="57.25,57.57 27.30,47.46"/>
        <lane id="gneE3_1" index="1" speed="13.89" length="31.61" shape="58.27,54.54 28.32,44.43"/>
        <lane id="gneE3_2" index="2" speed="13.89" length="31.61" shape="59.29,51.51 29.35,41.39"/>
        <lane id="gneE3_3" index="3" speed="13.89" length="31.61" shape="60.32,48.48 30.37,38.36"/>
    </edge>
    <edge id="gneE4" from="gneJ4" to="gneJ5" priority="-1">
        <lane id="gneE4_0" index="0" speed="13.89" length="19.11" shape="26.25,47.46 8.24,53.84"/>
        <lane id="gneE4_1" index="1" speed="13.89" length="19.11" shape="25.19,44.45 7.17,50.82"/>
        <lane id="gneE4_2" index="2" speed="13.89" length="19.11" shape="24.12,41.43 6.10,47.81"/>
        <lane id="gneE4_3" index="3" speed="13.89" length="19.11" shape="23.05,38.41 5.04,44.79"/>
    </edge>
    <edge id="gneE5" from="gneJ5" to="gneJ6" priority="-1">
        <lane id="gneE5_0" index="0" speed="13.89" length="12.22" shape="4.93,62.22 6.86,74.28"/>
        <lane id="gneE5_1" index="1" speed="13.89" length="12.22" shape="1.77,62.72 3.70,74.79"/>
    </edge>
    <edge id="gneE6" from="gneJ6" to="gneJ0" priority="-1">
        <lane id="gneE6_0" index="0" speed="13.89" length="20.60" shape="10.66,78.72 30.24,85.11"/>
    </edge>
    <edge id="gneE7" from="gneJ5" to="gneJ7" priority="-1">
        <lane id="gneE7_0" index="0" speed="13.89" length="16.83" shape="-8.40,45.92 -18.33,32.32"/>
        <lane id="gneE7_1" index="1" speed="13.89" length="16.83" shape="-5.82,44.03 -15.74,30.43"/>
    </edge>
    <edge id="gneE8" from="gneJ7" to="gneJ8" priority="-1">
        <lane id="gneE8_0" index="0" speed="13.89" length="19.77" shape="-18.35,26.69 -6.81,10.64"/>
        <lane id="gneE8_1" index="1" speed="13.89" length="19.77" shape="-15.75,28.56 -4.21,12.51"/>
    </edge>
    <edge id="gneE9" from="gneJ8" to="gneJ9" priority="-1">
        <lane id="gneE9_0" index="0" speed="13.89" length="98.61" shape="-3.27,8.65 95.06,1.27"/>
        <lane id="gneE9_1" index="1" speed="13.89" length="98.61" shape="-3.03,11.84 95.30,4.46"/>
    </edge>

    <junction id="gneJ0" type="priority" x="30.62" y="86.92" incLanes="gneE6_0" intLanes=":gneJ0_0_0" shape="31.52,86.69 30.73,83.59 29.74,86.63 30.38,86.82 30.62,86.85 30.86,86.84 31.15,86.78">
        <request index="0" response="0" foes="0" cont="0"/>
    </junction>
    <junction id="gneJ1" type="priority" x="56.42" y="80.38" incLanes="gneE0_0" intLanes=":gneJ1_0_0 :gneJ1_0_1" shape="55.21,81.83 50.30,77.72 49.57,78.53 49.26,78.76 48.92,78.94 48.48,79.09 47.88,79.24 48.67,82.35">
        <request index="0" response="00" foes="00" cont="0"/>
        <request index="1" response="00" foes="00" cont="0"/>
    </junction>
    <junction id="gneJ10" type="priority" x="99.82" y="32.70" incLanes="gneE10_0 gneE10_1" intLanes=":gneJ10_0_0 :gneJ10_0_1" shape="106.13,31.66 99.82,32.70 102.16,38.66 104.74,37.04 105.56,35.96 106.07,34.71 106.26,33.27">
        <request index="0" response="00" foes="00" cont="0"/>
        <request index="1" response="00" foes="00" cont="0"/>
    </junction>
    <junction id="gneJ2" type="priority" x="72.24" y="61.47" incLanes="gneE1_0 gneE1_1" intLanes=":gneJ2_0_0 :gneJ2_0_1" shape="69.37,57.44 64.16,61.16 69.07,65.26 70.51,62.71 70.73,61.41 70.61,60.10 70.16,58.78">
        <request index="0" response="00" foes="00" cont="0"/>
        <request index="1" response="00" foes="00" cont="0"/>
    </junction>
    <junction id="gneJ3" type="priority" x="62.25" y="47.44" incLanes="gneE2_0 gneE2_1 gneE11_0 gneE11_1" intLanes=":gneJ3_0_0 :gneJ3_0_1 :gneJ3_2_0 :gneJ3_2_1" shape="65.44,62.96 70.66,59.24 69.29,57.26 68.27,55.61 67.57,54.28 67.21,53.28 67.17,52.61 67.47,52.27 65.14,46.31 63.58,46.99 63.00,47.19 62.41,47.28 61.72,47.21 60.83,46.96 56.73,59.09 58.75,59.63 60.38,59.91 61.74,60.14 62.96,60.57 64.15,61.43">
        <request index="0" response="0000" foes="0000" cont="0"/>
        <request index="1" response="0000" foes="0000" cont="0"/>
        <request index="2" response="0000" foes="0000" cont="0"/>
        <request index="3" response="0000" foes="0000" cont="0"/>
    </junction>
    <junction id="gneJ4" type="priority" x="26.69" y="35.43" incLanes="gneE3_0 gneE3_1 gneE3_2 gneE3_3" intLanes=":gneJ4_0_0 :gneJ4_0_1 :gneJ4_0_2 :gneJ4_0_3" shape="26.79,48.97 30.88,36.85 27.83,35.96 26.69,35.85 25.56,35.97 24.23,36.32 22.52,36.91">
        <request index="0" response="0000" foes="0000" cont="0"/>
        <request index="1" response="0000" foes="0000" cont="0"/>
        <request index="2" response="0000" foes="0000" cont="0"/>
        <request index="3" response="0000" foes="0000" cont="0"/>
    </junction>
    <junction id="gneJ5" type="priority" x="-2.56" y="45.78" incLanes="gneE4_0 gneE4_1 gneE4_2 gneE4_3" intLanes=":gneJ5_0_0 :gneJ5_0_1 :gneJ5_2_0 :gneJ5_2_1" shape="0.19,62.98 6.51,61.97 6.37,58.78 6.64,57.56 7.13,56.58 7.84,55.84 8.77,55.35 4.50,43.28 2.29,43.97 0.36,44.37 -1.29,44.48 -2.65,44.31 -3.73,43.84 -4.53,43.09 -9.69,46.86 -7.13,50.06 -4.99,52.36 -3.22,54.28 -1.80,56.35 -0.67,59.07">
        <request index="0" response="0000" foes="0000" cont="0"/>
        <request index="1" response="0000" foes="0000" cont="0"/>
        <request index="2" response="0000" foes="0000" cont="0"/>
        <request index="3" response="0000" foes="0000" cont="0"/>
    </junction>
    <junction id="gneJ6" type="priority" x="2.56" y="77.76" incLanes="gneE5_0 gneE5_1" intLanes=":gneJ6_0_0" shape="10.16,80.24 11.15,77.20 9.82,76.51 9.31,76.03 8.92,75.45 8.63,74.79 8.44,74.03 2.12,75.04 3.21,76.83 4.35,77.70 5.89,78.56 7.83,79.41">
        <request index="0" response="0" foes="0" cont="0"/>
    </junction>
    <junction id="gneJ7" type="priority" x="-14.45" y="29.49" incLanes="gneE7_0 gneE7_1" intLanes=":gneJ7_0_0 :gneJ7_0_1" shape="-19.62,33.26 -14.45,29.49 -19.65,25.75 -20.85,28.26 -20.99,29.51 -20.84,30.76 -20.38,32.01">
        <request index="0" response="00" foes="00" cont="0"/>
        <request index="1" response="00" foes="00" cont="0"/>
    </junction>
    <junction id="gneJ8" type="priority" x="-2.91" y="13.44" incLanes="gneE8_0 gneE8_1" intLanes=":gneJ8_0_0 :gneJ8_0_1" shape="-2.91,13.44 -3.39,7.06 -5.24,7.45 -6.06,7.83 -6.81,8.33 -7.49,8.96 -8.11,9.70">
        <request index="0" response="00" foes="00" cont="0"/>
        <request index="1" response="00" foes="00" cont="0"/>
    </junction>
    <junction id="gneJ9" type="priority" x="95.42" y="6.06" incLanes="gneE9_0 gneE9_1" intLanes=":gneJ9_0_0 :gneJ9_0_1" shape="95.42,6.06 101.73,5.02 100.56,1.86 99.56,0.79 98.29,0.08 96.75,-0.30 94.94,-0.32">
        <request index="0" response="00" foes="00" cont="0"/>
        <request index="1" response="00" foes="00" cont="0"/>
    </junction>

    <connection from="gneE0" to="gneE1" fromLane="0" toLane="0" via=":gneJ1_0_0" dir="s" state="M"/>
    <connection from="gneE0" to="gneE1" fromLane="0" toLane="1" via=":gneJ1_0_1" dir="s" state="M"/>
    <connection from="gneE1" to="gneE2" fromLane="0" toLane="0" via=":gneJ2_0_0" dir="r" state="M"/>
    <connection from="gneE1" to="gneE2" fromLane="1" toLane="1" via=":gneJ2_0_1" dir="r" state="M"/>
    <connection from="gneE10" to="gneE11" fromLane="0" toLane="0" via=":gneJ10_0_0" dir="l" state="M"/>
    <connection from="gneE10" to="gneE11" fromLane="1" toLane="1" via=":gneJ10_0_1" dir="l" state="M"/>
    <connection from="gneE11" to="gneE3" fromLane="0" toLane="2" via=":gneJ3_2_0" dir="s" state="M"/>
    <connection from="gneE11" to="gneE3" fromLane="1" toLane="3" via=":gneJ3_2_1" dir="s" state="M"/>
    <connection from="gneE2" to="gneE3" fromLane="0" toLane="0" via=":gneJ3_0_0" dir="s" state="M"/>
    <connection from="gneE2" to="gneE3" fromLane="1" toLane="1" via=":gneJ3_0_1" dir="s" state="M"/>
    <connection from="gneE3" to="gneE4" fromLane="0" toLane="0" via=":gneJ4_0_0" dir="s" state="M"/>
    <connection from="gneE3" to="gneE4" fromLane="1" toLane="1" via=":gneJ4_0_1" dir="s" state="M"/>
    <connection from="gneE3" to="gneE4" fromLane="2" toLane="2" via=":gneJ4_0_2" dir="s" state="M"/>
    <connection from="gneE3" to="gneE4" fromLane="3" toLane="3" via=":gneJ4_0_3" dir="s" state="M"/>
    <connection from="gneE4" to="gneE5" fromLane="0" toLane="0" via=":gneJ5_0_0" dir="r" state="M"/>
    <connection from="gneE4" to="gneE5" fromLane="1" toLane="1" via=":gneJ5_0_1" dir="r" state="M"/>
    <connection from="gneE4" to="gneE7" fromLane="2" toLane="0" via=":gneJ5_2_0" dir="l" state="M"/>
    <connection from="gneE4" to="gneE7" fromLane="3" toLane="1" via=":gneJ5_2_1" dir="l" state="M"/>
    <connection from="gneE5" to="gneE6" fromLane="1" toLane="0" via=":gneJ6_0_0" dir="r" state="M"/>
    <connection from="gneE6" to="gneE0" fromLane="0" toLane="0" via=":gneJ0_0_0" dir="s" state="M"/>
    <connection from="gneE7" to="gneE8" fromLane="0" toLane="0" via=":gneJ7_0_0" dir="l" state="M"/>
    <connection from="gneE7" to="gneE8" fromLane="1" toLane="1" via=":gneJ7_0_1" dir="l" state="M"/>
    <connection from="gneE8" to="gneE9" fromLane="0" toLane="0" via=":gneJ8_0_0" dir="l" state="M"/>
    <connection from="gneE8" to="gneE9" fromLane="1" toLane="1" via=":gneJ8_0_1" dir="l" state="M"/>
    <connection from="gneE9" to="gneE10" fromLane="0" toLane="0" via=":gneJ9_0_0" dir="l" state="M"/>
    <connection from="gneE9" to="gneE10" fromLane="1" toLane="1" via=":gneJ9_0_1" dir="l" state="M"/>

    <connection from=":gneJ0_0" to="gneE0" fromLane="0" toLane="0" dir="s" state="M"/>
    <connection from=":gneJ1_0" to="gneE1" fromLane="0" toLane="0" dir="s" state="M"/>
    <connection from=":gneJ1_0" to="gneE1" fromLane="1" toLane="1" dir="s" state="M"/>
    <connection from=":gneJ10_0" to="gneE11" fromLane="0" toLane="0" dir="l" state="M"/>
    <connection from=":gneJ10_0" to="gneE11" fromLane="1" toLane="1" dir="l" state="M"/>
    <connection from=":gneJ2_0" to="gneE2" fromLane="0" toLane="0" dir="r" state="M"/>
    <connection from=":gneJ2_0" to="gneE2" fromLane="1" toLane="1" dir="r" state="M"/>
    <connection from=":gneJ3_0" to="gneE3" fromLane="0" toLane="0" dir="s" state="M"/>
    <connection from=":gneJ3_0" to="gneE3" fromLane="1" toLane="1" dir="s" state="M"/>
    <connection from=":gneJ3_2" to="gneE3" fromLane="0" toLane="2" dir="s" state="M"/>
    <connection from=":gneJ3_2" to="gneE3" fromLane="1" toLane="3" dir="s" state="M"/>
    <connection from=":gneJ4_0" to="gneE4" fromLane="0" toLane="0" dir="s" state="M"/>
    <connection from=":gneJ4_0" to="gneE4" fromLane="1" toLane="1" dir="s" state="M"/>
    <connection from=":gneJ4_0" to="gneE4" fromLane="2" toLane="2" dir="s" state="M"/>
    <connection from=":gneJ4_0" to="gneE4" fromLane="3" toLane="3" dir="s" state="M"/>
    <connection from=":gneJ5_0" to="gneE5" fromLane="0" toLane="0" dir="r" state="M"/>
    <connection from=":gneJ5_0" to="gneE5" fromLane="1" toLane="1" dir="r" state="M"/>
    <connection from=":gneJ5_2" to="gneE7" fromLane="0" toLane="0" dir="l" state="M"/>
    <connection from=":gneJ5_2" to="gneE7" fromLane="1" toLane="1" dir="l" state="M"/>
    <connection from=":gneJ6_0" to="gneE6" fromLane="0" toLane="0" dir="r" state="M"/>
    <connection from=":gneJ7_0" to="gneE8" fromLane="0" toLane="0" dir="l" state="M"/>
    <connection from=":gneJ7_0" to="gneE8" fromLane="1" toLane="1" dir="l" state="M"/>
    <connection from=":gneJ8_0" to="gneE9" fromLane="0" toLane="0" dir="l" state="M"/>
    <connection from=":gneJ8_0" to="gneE9" fromLane="1" toLane="1" dir="l" state="M"/>
    <connection from=":gneJ9_0" to="gneE10" fromLane="0" toLane="0" dir="l" state="M"/>
    <connection from=":gneJ9_0" to="gneE10" fromLane="1" toLane="1" dir="l" state="M"/>

</net>
