<?xml version="1.0" encoding="UTF-8"?>

<!-- generated on 2021-09-01 14:06:25 by Eclipse SUMO netedit Version 1.10.0
<configuration xmlns:xsi="http://www.w3.org/2001/XMLSchema-instance" xsi:noNamespaceSchemaLocation="http://sumo.dlr.de/xsd/netconvertConfiguration.xsd">

    <input>
        <sumo-net-file value="/home/jeff/ubuntu2/SUMO/double_circle/double_circle.net.xml"/>
    </input>

    <output>
        <output-file value="/home/jeff/ubuntu2/SUMO/double_circle/double_circle.net.xml"/>
    </output>

    <processing>
        <geometry.min-radius.fix.railways value="false"/>
        <geometry.max-grade.fix value="false"/>
        <offset.disable-normalization value="true"/>
        <lefthand value="false"/>
    </processing>

    <junctions>
        <no-turnarounds value="true"/>
        <junctions.corner-detail value="5"/>
        <junctions.limit-turn-speed value="5.5"/>
        <rectangular-lane-cut value="false"/>
    </junctions>

    <pedestrian>
        <walkingareas value="false"/>
    </pedestrian>

    <netedit>
        <additional-files value="/home/jeff/ubuntu2/SUMO/double_circle/double_circle.add.xml"/>
    </netedit>

    <report>
        <aggregate-warnings value="5"/>
    </report>

</configuration>
-->

<additional xmlns:xsi="http://www.w3.org/2001/XMLSchema-instance" xsi:noNamespaceSchemaLocation="http://sumo.dlr.de/xsd/additional_file.xsd">
    <rerouter id="rerouter_0" edges="gneE3" pos="0.00,100.00">
        <interval begin="0.00" end="3600.00">
            <destProbReroute id="gneE0" probability="0.50"/>
            <destProbReroute id="gneE9" probability="0.50"/>
        </interval>
    </rerouter>
    <rerouter id="rerouter_1" edges="gneE0" pos="42.31,82.71">
        <interval begin="0.00" end="3600.00">
            <destProbReroute id="gneE4" probability="1.00"/>
        </interval>
    </rerouter>
    <rerouter id="rerouter_2" edges="gneE9" pos="29.26,9.93">
        <interval begin="0.00" end="1800.00">
            <destProbReroute id="gneE4" probability="1.00"/>
        </interval>
    </rerouter>
</additional>
