<?xml version="1.0" encoding="UTF-8"?>

<!-- generated on 2021-09-14 16:19:50 by Eclipse SUMO netedit Version 1.10.0
<configuration xmlns:xsi="http://www.w3.org/2001/XMLSchema-instance" xsi:noNamespaceSchemaLocation="http://sumo.dlr.de/xsd/netconvertConfiguration.xsd">

    <input>
        <sumo-net-file value="/home/jeff/ubuntu2/sumo_example/my_city/my.net.xml"/>
    </input>

    <output>
        <output-file value="/home/jeff/ubuntu2/sumo_example/my_city/my.net.xml"/>
    </output>

    <processing>
        <geometry.min-radius.fix.railways value="false"/>
        <geometry.max-grade.fix value="false"/>
        <offset.disable-normalization value="true"/>
        <lefthand value="false"/>
    </processing>

    <junctions>
        <no-turnarounds value="true"/>
        <junctions.corner-detail value="5"/>
        <junctions.limit-turn-speed value="5.5"/>
        <rectangular-lane-cut value="false"/>
    </junctions>

    <pedestrian>
        <walkingareas value="false"/>
    </pedestrian>

    <netedit>
        <route-files value="/home/jeff/ubuntu2/sumo_example/my_city/my.rou.xml"/>
    </netedit>

    <report>
        <aggregate-warnings value="5"/>
    </report>

</configuration>
-->

<net version="1.9" junctionCornerDetail="5" limitTurnSpeed="5.50" xmlns:xsi="http://www.w3.org/2001/XMLSchema-instance" xsi:noNamespaceSchemaLocation="http://sumo.dlr.de/xsd/net_file.xsd">

    <location netOffset="0.00,0.00" convBoundary="-116.39,-167.27,102.13,1056.57" origBoundary="-10000000000.00,-10000000000.00,10000000000.00,10000000000.00" projParameter="!"/>

    <edge id=":gneJ0_0" function="internal">
        <lane id=":gneJ0_0_0" index="0" allow="private emergency authority vip passenger hov taxi bus coach delivery truck trailer evehicle" speed="6.77" length="5.78" shape="8.02,992.32 8.18,993.81 8.69,995.11 9.54,996.21 10.72,997.13"/>
        <lane id=":gneJ0_0_1" index="1" allow="private emergency authority vip passenger hov taxi bus coach delivery truck trailer evehicle" speed="8.33" length="9.09" shape="4.82,992.31 5.08,994.65 5.87,996.69 7.20,998.43 9.07,999.87"/>
        <lane id=":gneJ0_0_2" index="2" allow="private emergency authority vip passenger hov taxi bus coach delivery truck trailer evehicle" speed="9.65" length="12.39" shape="1.62,992.30 1.97,995.50 3.06,998.28 4.87,1000.65 7.42,1002.61"/>
    </edge>
    <edge id=":gneJ0_3" function="internal">
        <lane id=":gneJ0_3_0" index="0" allow="private emergency authority vip passenger hov taxi bus coach delivery truck trailer evehicle" speed="8.52" length="6.82" shape="-10.14,998.57 -9.20,997.41 -8.52,995.98 -8.12,994.27 -7.98,992.28"/>
        <lane id=":gneJ0_3_1" index="1" allow="private emergency authority vip passenger hov taxi bus coach delivery truck trailer evehicle" speed="9.93" length="9.42" shape="-7.94,1000.89 -6.56,999.24 -5.58,997.26 -4.98,994.94 -4.78,992.29"/>
        <lane id=":gneJ0_3_2" index="2" allow="private emergency authority vip passenger hov taxi bus coach delivery truck trailer evehicle" speed="11.16" length="12.02" shape="-5.75,1003.22 -3.93,1001.07 -2.63,998.53 -1.85,995.61 -1.58,992.30"/>
    </edge>
    <edge id=":gneJ1_0" function="internal">
        <lane id=":gneJ1_0_0" index="0" allow="private emergency authority vip passenger hov taxi bus coach delivery truck trailer evehicle" speed="23.16" length="8.57" shape="8.01,-3.98 8.50,-1.54 9.60,-0.02 10.71,1.51 11.22,3.95"/>
        <lane id=":gneJ1_0_1" index="1" allow="private emergency authority vip passenger hov taxi bus coach delivery truck trailer evehicle" speed="23.16" length="8.57" shape="4.81,-3.99 5.30,-1.54 6.40,-0.01 7.51,1.52 8.02,3.96"/>
        <lane id=":gneJ1_0_2" index="2" allow="private emergency authority vip passenger hov taxi bus coach delivery truck trailer evehicle" speed="23.16" length="8.57" shape="1.61,-3.99 2.10,-1.54 3.20,-0.01 4.31,1.53 4.82,3.98"/>
        <lane id=":gneJ1_0_3" index="3" allow="private emergency authority vip passenger hov taxi bus coach delivery truck trailer evehicle" speed="23.16" length="8.57" shape="1.61,-3.99 1.62,4.00"/>
    </edge>
    <edge id=":gneJ1_4" function="internal">
        <lane id=":gneJ1_4_0" index="0" allow="private emergency authority vip passenger hov taxi bus coach delivery truck trailer evehicle" speed="33.16" length="8.26" shape="-11.29,4.07 -10.74,1.58 -9.61,0.03 -8.50,-1.52 -7.99,-4.01"/>
        <lane id=":gneJ1_4_1" index="1" allow="private emergency authority vip passenger hov taxi bus coach delivery truck trailer evehicle" speed="33.16" length="8.26" shape="-8.09,4.05 -7.99,-4.01"/>
        <lane id=":gneJ1_4_2" index="2" allow="private emergency authority vip passenger hov taxi bus coach delivery truck trailer evehicle" speed="33.16" length="8.26" shape="-4.89,4.03 -4.79,-4.00"/>
        <lane id=":gneJ1_4_3" index="3" allow="private emergency authority vip passenger hov taxi bus coach delivery truck trailer evehicle" speed="33.16" length="8.26" shape="-1.69,4.02 -1.59,-4.00"/>
    </edge>
    <edge id=":gneJ10_0" function="internal">
        <lane id=":gneJ10_0_0" index="0" allow="private emergency authority vip passenger hov taxi bus coach delivery truck trailer evehicle" speed="8.82" length="6.61" shape="11.30,19.39 11.49,21.26 12.06,22.46 13.03,23.51 14.44,24.88"/>
        <lane id=":gneJ10_0_1" index="1" allow="private emergency authority vip passenger hov taxi bus coach delivery truck trailer evehicle" speed="9.74" length="8.15" shape="11.30,19.39 11.06,21.83 10.72,23.64 10.87,25.25 12.13,27.10"/>
    </edge>
    <edge id=":gneJ10_2" function="internal">
        <lane id=":gneJ10_2_0" index="0" allow="private emergency authority vip passenger hov taxi bus coach delivery truck trailer evehicle" speed="33.16" length="9.31" shape="8.10,19.40 8.30,28.67"/>
        <lane id=":gneJ10_2_1" index="1" allow="private emergency authority vip passenger hov taxi bus coach delivery truck trailer evehicle" speed="33.16" length="9.31" shape="4.90,19.42 5.10,28.73"/>
        <lane id=":gneJ10_2_2" index="2" allow="private emergency authority vip passenger hov taxi bus coach delivery truck trailer evehicle" speed="33.16" length="9.31" shape="1.70,19.44 1.90,28.78"/>
    </edge>
    <edge id=":gneJ11_0" function="internal">
        <lane id=":gneJ11_0_0" index="0" speed="23.52" length="6.93" shape="25.12,36.06 26.17,37.77 26.41,39.30 26.74,40.73 28.04,42.13"/>
    </edge>
    <edge id=":gneJ11_1" function="internal">
        <lane id=":gneJ11_1_0" index="0" speed="8.65" length="6.32" shape="22.81,38.27 23.92,39.68 24.34,40.89 24.37,42.25 24.32,44.13"/>
    </edge>
    <edge id=":gneJ12_0" function="internal">
        <lane id=":gneJ12_0_0" index="0" speed="8.20" length="7.89" shape="-48.94,69.44 -50.43,67.66 -52.00,66.39 -53.65,65.63 -55.37,65.38"/>
    </edge>
    <edge id=":gneJ12_1" function="internal">
        <lane id=":gneJ12_1_0" index="0" speed="13.89" length="8.50" shape="-46.83,65.16 -55.37,65.38"/>
        <lane id=":gneJ12_1_1" index="1" speed="13.89" length="8.50" shape="-46.93,61.96 -55.38,62.18"/>
    </edge>
    <edge id=":gneJ14_0" function="internal">
        <lane id=":gneJ14_0_0" index="0" allow="private emergency authority vip passenger hov taxi bus coach delivery truck trailer evehicle" speed="33.16" length="3.22" shape="-8.12,30.31 -8.20,29.33 -8.37,28.66 -8.53,28.00 -8.58,27.02"/>
        <lane id=":gneJ14_0_1" index="1" allow="private emergency authority vip passenger hov taxi bus coach delivery truck trailer evehicle" speed="33.16" length="3.22" shape="-4.92,30.26 -5.00,29.31 -5.17,28.67 -5.33,28.03 -5.38,27.08"/>
        <lane id=":gneJ14_0_2" index="2" allow="private emergency authority vip passenger hov taxi bus coach delivery truck trailer evehicle" speed="33.16" length="3.22" shape="-1.72,30.21 -1.80,29.30 -1.97,28.68 -2.13,28.07 -2.18,27.15"/>
    </edge>
    <edge id=":gneJ14_3" function="internal">
        <lane id=":gneJ14_3_0" index="0" allow="private emergency authority vip passenger hov taxi bus coach delivery truck trailer evehicle" speed="8.21" length="3.96" shape="-13.00,30.60 -12.34,29.64 -11.98,28.91 -11.83,28.11 -11.78,26.95"/>
    </edge>
    <edge id=":gneJ15_0" function="internal">
        <lane id=":gneJ15_0_0" index="0" speed="9.04" length="5.57" shape="-20.97,45.33 -21.05,43.68 -21.04,42.50 -20.72,41.42 -19.87,40.06"/>
    </edge>
    <edge id=":gneJ15_1" function="internal">
        <lane id=":gneJ15_1_0" index="0" speed="13.09" length="5.84" shape="-24.69,43.17 -23.10,42.44 -21.96,41.98 -20.98,41.33 -19.87,40.06"/>
    </edge>
    <edge id=":gneJ16_0" function="internal">
        <lane id=":gneJ16_0_0" index="0" speed="13.89" length="15.97" shape="-53.23,55.98 -48.24,55.46 -44.58,54.12 -41.57,52.35 -38.51,50.51"/>
    </edge>
    <edge id=":gneJ16_1" function="internal">
        <lane id=":gneJ16_1_0" index="0" speed="13.89" length="14.84" shape="-53.23,55.98 -38.46,55.27"/>
        <lane id=":gneJ16_1_1" index="1" speed="13.89" length="14.84" shape="-53.23,59.18 -38.34,58.47"/>
    </edge>
    <edge id=":gneJ17_0" function="internal">
        <lane id=":gneJ17_0_0" index="0" allow="private emergency authority vip passenger hov taxi bus coach delivery truck trailer evehicle" speed="33.16" length="8.20" shape="13.09,168.90 12.57,171.35 11.46,172.88 10.36,174.41 9.85,176.86"/>
        <lane id=":gneJ17_0_1" index="1" allow="private emergency authority vip passenger hov taxi bus coach delivery truck trailer evehicle" speed="33.16" length="8.20" shape="9.89,168.88 9.85,176.86"/>
        <lane id=":gneJ17_0_2" index="2" allow="private emergency authority vip passenger hov taxi bus coach delivery truck trailer evehicle" speed="33.16" length="8.20" shape="6.70,168.85 6.65,176.85"/>
        <lane id=":gneJ17_0_3" index="3" allow="private emergency authority vip passenger hov taxi bus coach delivery truck trailer evehicle" speed="33.16" length="8.20" shape="3.50,168.82 3.45,176.84"/>
    </edge>
    <edge id=":gneJ2_0" function="internal">
        <lane id=":gneJ2_0_0" index="0" allow="private emergency authority vip passenger hov taxi bus coach delivery truck trailer evehicle" speed="23.52" length="31.17" shape="-5.82,170.93 -6.62,161.28 -8.64,153.94 -11.23,147.63 -13.71,141.03"/>
        <lane id=":gneJ2_0_1" index="1" allow="private emergency authority vip passenger hov taxi bus coach delivery truck trailer evehicle" speed="23.52" length="31.37" shape="-5.82,170.93 -6.14,161.13 -7.11,153.47 -8.65,146.83 -10.65,140.09"/>
    </edge>
    <edge id=":gneJ2_2" function="internal">
        <lane id=":gneJ2_2_0" index="0" allow="private emergency authority vip passenger hov taxi bus coach delivery truck trailer evehicle" speed="33.16" length="31.58" shape="-5.82,170.93 -6.41,139.42"/>
        <lane id=":gneJ2_2_1" index="1" allow="private emergency authority vip passenger hov taxi bus coach delivery truck trailer evehicle" speed="33.16" length="31.58" shape="-2.62,170.94 -3.21,139.37"/>
        <lane id=":gneJ2_2_2" index="2" allow="private emergency authority vip passenger hov taxi bus coach delivery truck trailer evehicle" speed="33.16" length="31.58" shape="0.58,170.95 -0.01,139.32"/>
    </edge>
    <edge id=":gneJ21_0" function="internal">
        <lane id=":gneJ21_0_0" index="0" speed="7.68" length="11.77" shape="40.16,1014.90 42.63,1016.90 43.98,1019.25 44.22,1021.95 43.34,1025.00"/>
        <lane id=":gneJ21_0_1" index="1" speed="6.10" length="7.06" shape="38.51,1017.64 39.99,1018.84 40.80,1020.25 40.94,1021.87 40.42,1023.70"/>
        <lane id=":gneJ21_0_2" index="2" speed="3.92" length="2.35" shape="36.86,1020.38 37.35,1020.78 37.62,1021.25 37.67,1021.79 37.49,1022.40"/>
    </edge>
    <edge id=":gneJ22_0" function="internal">
        <lane id=":gneJ22_0_0" index="0" speed="8.77" length="3.31" shape="31.16,1052.38 30.46,1053.84 29.81,1054.78 28.91,1055.48 27.49,1056.25"/>
        <lane id=":gneJ22_0_1" index="1" speed="6.92" length="3.31" shape="28.24,1051.08 27.82,1051.96 27.43,1052.52 26.89,1052.94 26.03,1053.40"/>
        <lane id=":gneJ22_0_2" index="2" speed="4.35" length="3.31" shape="25.31,1049.78 25.17,1050.07 25.04,1050.26 24.86,1050.40 24.58,1050.55"/>
    </edge>
    <edge id=":gneJ23_0" function="internal">
        <lane id=":gneJ23_0_0" index="0" speed="8.81" length="3.26" shape="12.93,1063.69 11.49,1064.38 10.41,1064.70 9.29,1064.69 7.72,1064.41"/>
        <lane id=":gneJ23_0_1" index="1" speed="6.95" length="3.26" shape="11.47,1060.84 10.61,1061.26 9.96,1061.45 9.29,1061.44 8.35,1061.28"/>
        <lane id=":gneJ23_0_2" index="2" speed="4.36" length="3.26" shape="10.02,1057.99 9.73,1058.13 9.51,1058.20 9.29,1058.19 8.98,1058.14"/>
    </edge>
    <edge id=":gneJ24_0" function="internal">
        <lane id=":gneJ24_0_0" index="0" speed="7.94" length="8.52" shape="-17.60,1059.34 -19.70,1058.66 -21.41,1057.54 -22.73,1055.97 -23.64,1053.96"/>
        <lane id=":gneJ24_0_1" index="1" speed="6.29" length="5.11" shape="-16.97,1056.21 -18.23,1055.80 -19.26,1055.12 -20.05,1054.18 -20.60,1052.97"/>
        <lane id=":gneJ24_0_2" index="2" speed="4.01" length="1.70" shape="-16.34,1053.07 -16.76,1052.93 -17.11,1052.71 -17.37,1052.39 -17.55,1051.99"/>
    </edge>
    <edge id=":gneJ25_0" function="internal">
        <lane id=":gneJ25_0_0" index="0" speed="8.50" length="6.27" shape="-29.66,1035.29 -30.17,1033.52 -30.29,1032.23 -29.98,1030.96 -29.23,1029.29"/>
        <lane id=":gneJ25_0_1" index="1" speed="6.72" length="3.76" shape="-26.62,1034.30 -26.92,1033.24 -26.99,1032.47 -26.81,1031.71 -26.36,1030.71"/>
        <lane id=":gneJ25_0_2" index="2" speed="4.24" length="1.25" shape="-23.57,1033.32 -23.67,1032.97 -23.70,1032.71 -23.64,1032.46 -23.49,1032.12"/>
    </edge>
    <edge id=":gneJ26_0" function="internal">
        <lane id=":gneJ26_0_0" index="0" speed="13.07" length="1.72" shape="-18.15,1006.81 -17.76,1006.06 -17.45,1005.56 -17.07,1005.12 -16.46,1004.53"/>
        <lane id=":gneJ26_0_1" index="1" speed="10.21" length="1.72" shape="-15.28,1008.23 -15.05,1007.77 -14.86,1007.48 -14.63,1007.21 -14.26,1006.86"/>
        <lane id=":gneJ26_0_2" index="2" speed="33.16" length="1.72" shape="-12.41,1009.64 -12.33,1009.49 -12.27,1009.39 -12.19,1009.30 -12.07,1009.19"/>
    </edge>
    <edge id=":gneJ29_0" function="internal">
        <lane id=":gneJ29_0_0" index="0" speed="13.89" length="0.15" shape="-39.11,64.91 -39.18,64.91"/>
        <lane id=":gneJ29_0_1" index="1" speed="13.89" length="0.15" shape="-39.07,61.71 -39.28,61.71"/>
    </edge>
    <edge id=":gneJ29_2" function="internal">
        <lane id=":gneJ29_2_0" index="0" speed="13.89" length="0.81" shape="-38.26,55.26 -38.98,55.31"/>
        <lane id=":gneJ29_2_1" index="1" speed="13.89" length="0.81" shape="-38.14,58.46 -39.02,58.51"/>
    </edge>
    <edge id=":gneJ3_0" function="internal">
        <lane id=":gneJ3_0_0" index="0" allow="private emergency authority vip passenger hov taxi bus coach delivery truck trailer evehicle" speed="23.52" length="5.50" shape="14.19,105.07 13.74,106.63 13.59,107.74 13.59,108.87 13.61,110.50"/>
    </edge>
    <edge id=":gneJ3_1" function="internal">
        <lane id=":gneJ3_1_0" index="0" allow="private emergency authority vip passenger hov taxi bus coach delivery truck trailer evehicle" speed="33.16" length="3.24" shape="9.67,107.27 9.80,108.23 10.06,108.87 10.30,109.51 10.41,110.47"/>
        <lane id=":gneJ3_1_1" index="1" allow="private emergency authority vip passenger hov taxi bus coach delivery truck trailer evehicle" speed="33.16" length="3.24" shape="6.47,107.32 6.60,108.26 6.86,108.88 7.10,109.50 7.21,110.44"/>
        <lane id=":gneJ3_1_2" index="2" allow="private emergency authority vip passenger hov taxi bus coach delivery truck trailer evehicle" speed="33.16" length="3.24" shape="3.27,107.38 3.40,108.29 3.66,108.90 3.90,109.50 4.01,110.42"/>
    </edge>
    <edge id=":gneJ30_0" function="internal">
        <lane id=":gneJ30_0_0" index="0" speed="8.78" length="17.60" shape="-20.43,70.78 -20.12,64.12 -19.07,59.38 -17.27,56.54 -14.72,55.62"/>
        <lane id=":gneJ30_0_1" index="1" speed="8.06" length="14.64" shape="-20.43,70.78 -20.11,65.52 -19.06,61.78 -17.28,59.54 -14.76,58.82"/>
    </edge>
    <edge id=":gneJ30_2" function="internal">
        <lane id=":gneJ30_2_0" index="0" speed="13.89" length="11.61" shape="-14.84,65.22 -26.46,65.07"/>
        <lane id=":gneJ30_2_1" index="1" speed="13.89" length="11.61" shape="-14.80,62.02 -26.42,61.87"/>
    </edge>
    <edge id=":gneJ30_4" function="internal">
        <lane id=":gneJ30_4_0" index="0" speed="8.30" length="14.83" shape="-14.80,62.02 -17.31,61.24 -19.15,58.95 -20.32,55.17 -20.83,49.88"/>
    </edge>
    <edge id=":gneJ30_5" function="internal">
        <lane id=":gneJ30_5_0" index="0" speed="13.89" length="11.62" shape="-26.33,55.47 -14.72,55.62"/>
        <lane id=":gneJ30_5_1" index="1" speed="13.89" length="11.62" shape="-26.37,58.67 -14.76,58.82"/>
    </edge>
    <edge id=":gneJ31_0" function="internal">
        <lane id=":gneJ31_0_0" index="0" speed="13.89" length="8.03" shape="-23.99,107.69 -24.60,105.38 -24.99,103.77 -25.59,102.26 -26.85,100.27"/>
    </edge>
    <edge id=":gneJ31_1" function="internal">
        <lane id=":gneJ31_1_0" index="0" speed="13.89" length="3.77" shape="-20.93,106.75 -21.03,105.70 -20.74,104.98 -20.34,104.24 -20.15,103.15"/>
    </edge>
    <edge id=":gneJ34_0" function="internal">
        <lane id=":gneJ34_0_0" index="0" speed="6.08" length="7.53" shape="98.45,141.10 98.08,143.11 97.16,144.56 95.68,145.42 93.65,145.71"/>
    </edge>
    <edge id=":gneJ34_1" function="internal">
        <lane id=":gneJ34_1_0" index="0" speed="3.91" length="2.51" shape="93.65,142.51 94.33,142.41 94.82,142.13 95.13,141.64 95.25,140.97"/>
    </edge>
    <edge id=":gneJ35_0" function="internal">
        <lane id=":gneJ35_0_0" index="0" speed="6.07" length="8.08" shape="-112.99,145.71 -115.20,145.39 -116.74,144.44 -117.60,142.85 -117.78,140.62"/>
    </edge>
    <edge id=":gneJ35_1" function="internal">
        <lane id=":gneJ35_1_0" index="0" speed="3.90" length="2.69" shape="-114.59,140.81 -114.53,141.56 -114.24,142.09 -113.73,142.40 -112.99,142.51"/>
    </edge>
    <edge id=":gneJ36_0" function="internal">
        <lane id=":gneJ36_0_0" index="0" speed="6.07" length="7.99" shape="98.75,-52.74 100.94,-52.48 102.48,-51.58 103.39,-50.03 103.67,-47.85"/>
    </edge>
    <edge id=":gneJ36_1" function="internal">
        <lane id=":gneJ36_1_0" index="0" speed="3.90" length="2.66" shape="100.47,-47.91 100.38,-48.64 100.07,-49.15 99.56,-49.45 98.83,-49.54"/>
    </edge>
    <edge id=":gneJ37_0" function="internal">
        <lane id=":gneJ37_0_0" index="0" speed="3.92" length="2.24" shape="-90.84,-44.92 -91.43,-44.83 -91.88,-44.57 -92.20,-44.16 -92.38,-43.59"/>
    </edge>
    <edge id=":gneJ37_1" function="internal">
        <lane id=":gneJ37_1_0" index="0" speed="6.12" length="6.72" shape="-95.53,-44.11 -95.00,-45.83 -94.05,-47.07 -92.69,-47.84 -90.91,-48.12"/>
    </edge>
    <edge id=":gneJ38_0" function="internal">
        <lane id=":gneJ38_0_0" index="0" speed="7.06" length="10.28" shape="-103.07,65.54 -106.15,65.90 -108.40,66.93 -109.81,68.65 -110.40,71.06"/>
    </edge>
    <edge id=":gneJ38_1" function="internal">
        <lane id=":gneJ38_1_0" index="0" speed="8.41" length="17.81" shape="-103.07,62.34 -107.40,61.56 -110.19,59.18 -111.44,55.21 -111.15,49.64"/>
    </edge>
    <edge id=":gneJ38_2" function="internal">
        <lane id=":gneJ38_2_0" index="0" speed="6.18" length="9.05" shape="-107.99,50.16 -108.05,52.70 -107.24,54.52 -105.59,55.61 -103.07,55.97"/>
    </edge>
    <edge id=":gneJ38_3" function="internal">
        <lane id=":gneJ38_3_0" index="0" speed="13.89" length="21.04" shape="-107.99,50.16 -108.67,54.81 -109.39,60.59 -110.01,66.38 -110.40,71.06"/>
    </edge>
    <edge id=":gneJ38_4" function="internal">
        <lane id=":gneJ38_4_0" index="0" speed="13.89" length="21.37" shape="-113.59,70.87 -113.20,66.14 -112.56,60.23 -111.83,54.33 -111.15,49.64"/>
    </edge>
    <edge id=":gneJ38_5" function="internal">
        <lane id=":gneJ38_5_0" index="0" speed="9.07" length="8.01" shape="-113.59,70.87 -112.67,65.75 -111.29,63.30"/>
    </edge>
    <edge id=":gneJ38_6" function="internal">
        <lane id=":gneJ38_6_0" index="0" speed="9.07" length="9.66" shape="-111.29,63.30 -110.61,62.09 -107.41,59.90 -103.07,59.17"/>
    </edge>
    <edge id=":gneJ39_0" function="internal">
        <lane id=":gneJ39_0_0" index="0" speed="6.67" length="9.64" shape="13.76,-76.10 11.30,-75.74 9.54,-74.57 8.49,-72.60 8.13,-69.82"/>
    </edge>
    <edge id=":gneJ39_1" function="internal">
        <lane id=":gneJ39_1_0" index="0" speed="13.89" length="27.69" shape="13.80,-79.30 6.66,-79.32 -0.04,-79.17 -6.74,-78.83 -13.86,-78.29"/>
    </edge>
    <edge id=":gneJ39_2" function="internal">
        <lane id=":gneJ39_2_0" index="0" speed="13.89" length="28.32" shape="-14.40,-84.67 -7.18,-85.21 -0.27,-85.56 6.65,-85.72 13.89,-85.70"/>
    </edge>
    <edge id=":gneJ39_3" function="internal">
        <lane id=":gneJ39_3_0" index="0" speed="11.28" length="31.16" shape="-14.40,-84.67 -4.53,-84.46 2.51,-81.92 6.73,-77.03 8.13,-69.82"/>
        <lane id=":gneJ39_3_1" index="1" speed="10.77" length="28.30" shape="-14.40,-84.67 -5.93,-84.36 0.11,-81.78 3.73,-76.94 4.93,-69.82"/>
        <lane id=":gneJ39_3_2" index="2" speed="10.28" length="25.70" shape="-14.13,-81.48 -5.78,-81.36 0.18,-79.38 3.75,-75.53 4.93,-69.82"/>
        <lane id=":gneJ39_3_3" index="3" speed="9.71" length="22.82" shape="-14.13,-81.48 -7.18,-81.26 -2.22,-79.24 0.75,-75.43 1.73,-69.83"/>
    </edge>
    <edge id=":gneJ39_7" function="internal">
        <lane id=":gneJ39_7_0" index="0" speed="6.33" length="9.04" shape="-7.87,-69.85 -8.22,-72.33 -9.29,-74.03 -11.08,-74.96 -13.58,-75.11"/>
        <lane id=":gneJ39_7_1" index="1" speed="7.85" length="14.53" shape="-4.67,-69.84 -5.24,-73.83 -6.96,-76.57 -9.83,-78.06 -13.86,-78.29"/>
    </edge>
    <edge id=":gneJ39_9" function="internal">
        <lane id=":gneJ39_9_0" index="0" speed="10.98" length="27.88" shape="-4.67,-69.84 -3.50,-76.88 -0.02,-81.86 5.78,-84.81 13.89,-85.70"/>
        <lane id=":gneJ39_9_1" index="1" speed="9.94" length="22.68" shape="-1.47,-69.84 -0.50,-75.46 2.37,-79.44 7.15,-81.79 13.85,-82.50"/>
    </edge>
    <edge id=":gneJ40_0" function="internal">
        <lane id=":gneJ40_0_0" index="0" speed="8.96" length="18.18" shape="103.93,-86.17 103.20,-81.23 101.07,-77.73 97.52,-75.66 92.57,-75.02"/>
        <lane id=":gneJ40_0_1" index="1" speed="7.65" length="12.99" shape="100.73,-86.18 100.21,-82.66 98.68,-80.15 96.15,-78.68 92.62,-78.22"/>
    </edge>
    <edge id=":gneJ40_2" function="internal">
        <lane id=":gneJ40_2_0" index="0" speed="3.90" length="2.60" shape="92.71,-84.62 93.41,-84.71 93.92,-85.01 94.22,-85.51 94.33,-86.21"/>
        <lane id=":gneJ40_2_1" index="1" speed="6.08" length="7.79" shape="92.66,-81.42 94.78,-81.69 96.30,-82.58 97.22,-84.08 97.53,-86.20"/>
    </edge>
    <edge id=":gneJ41_0" function="internal">
        <lane id=":gneJ41_0_0" index="0" speed="8.96" length="18.38" shape="92.84,-171.94 97.86,-171.32 101.43,-169.24 103.57,-165.70 104.26,-160.69"/>
        <lane id=":gneJ41_0_1" index="1" speed="7.65" length="13.13" shape="92.91,-168.74 96.49,-168.30 99.04,-166.81 100.56,-164.28 101.06,-160.71"/>
    </edge>
    <edge id=":gneJ41_2" function="internal">
        <lane id=":gneJ41_2_0" index="0" speed="3.90" length="2.63" shape="94.66,-160.74 94.56,-161.45 94.26,-161.96 93.75,-162.25 93.03,-162.34"/>
        <lane id=":gneJ41_2_1" index="1" speed="6.07" length="7.88" shape="97.86,-160.72 97.56,-162.87 96.65,-164.39 95.12,-165.28 92.97,-165.54"/>
    </edge>
    <edge id=":gneJ42_0" function="internal">
        <lane id=":gneJ42_0_0" index="0" speed="8.96" length="17.81" shape="-106.32,-157.08 -105.63,-161.90 -103.57,-165.37 -100.14,-167.50 -95.34,-168.28"/>
        <lane id=":gneJ42_0_1" index="1" speed="7.66" length="12.72" shape="-103.12,-157.08 -102.63,-160.53 -101.16,-163.01 -98.71,-164.52 -95.28,-165.08"/>
    </edge>
    <edge id=":gneJ42_2" function="internal">
        <lane id=":gneJ42_2_0" index="0" speed="3.91" length="2.54" shape="-95.15,-158.68 -95.84,-158.57 -96.33,-158.27 -96.62,-157.77 -96.72,-157.08"/>
        <lane id=":gneJ42_2_1" index="1" speed="6.08" length="7.63" shape="-95.21,-161.88 -97.27,-161.55 -98.74,-160.64 -99.63,-159.15 -99.92,-157.08"/>
    </edge>
    <edge id=":gneJ43_0" function="internal">
        <lane id=":gneJ43_0_0" index="0" speed="8.95" length="19.20" shape="-94.17,-68.26 -99.49,-68.57 -103.28,-70.53 -105.56,-74.15 -106.32,-79.42"/>
        <lane id=":gneJ43_0_1" index="1" speed="7.65" length="13.71" shape="-94.44,-71.45 -98.24,-71.67 -100.95,-73.07 -102.58,-75.65 -103.12,-79.42"/>
    </edge>
    <edge id=":gneJ43_2" function="internal">
        <lane id=":gneJ43_2_0" index="0" speed="3.90" length="2.74" shape="-96.72,-79.42 -96.61,-78.66 -96.29,-78.15 -95.74,-77.87 -94.98,-77.82"/>
        <lane id=":gneJ43_2_1" index="1" speed="6.07" length="8.23" shape="-99.92,-79.42 -99.59,-77.16 -98.62,-75.61 -96.99,-74.77 -94.71,-74.63"/>
    </edge>
    <edge id=":gneJ5_0" function="internal">
        <lane id=":gneJ5_0_0" index="0" speed="13.89" length="20.95" shape="101.80,49.79 101.18,70.73"/>
    </edge>
    <edge id=":gneJ5_1" function="internal">
        <lane id=":gneJ5_1_0" index="0" speed="8.96" length="7.85" shape="101.80,49.79 101.12,54.95 99.97,57.34"/>
    </edge>
    <edge id=":gneJ5_6" function="internal">
        <lane id=":gneJ5_6_0" index="0" speed="8.96" length="9.39" shape="99.97,57.34 99.32,58.69 96.40,61.02 92.35,61.92"/>
    </edge>
    <edge id=":gneJ5_2" function="internal">
        <lane id=":gneJ5_2_0" index="0" speed="6.86" length="9.77" shape="92.08,55.45 94.89,55.02 96.91,53.92 98.15,52.15 98.60,49.73"/>
    </edge>
    <edge id=":gneJ5_3" function="internal">
        <lane id=":gneJ5_3_0" index="0" speed="8.57" length="17.34" shape="92.21,58.65 96.32,59.29 99.18,61.52 100.80,65.33 101.18,70.73"/>
    </edge>
    <edge id=":gneJ5_4" function="internal">
        <lane id=":gneJ5_4_0" index="0" speed="6.34" length="9.04" shape="97.99,70.61 97.73,68.12 96.72,66.37 94.97,65.37 92.48,65.12"/>
    </edge>
    <edge id=":gneJ5_5" function="internal">
        <lane id=":gneJ5_5_0" index="0" speed="13.89" length="20.89" shape="97.99,70.61 98.60,49.73"/>
    </edge>
    <edge id=":gneJ6_0" function="internal">
        <lane id=":gneJ6_0_0" index="0" speed="13.89" length="12.08" shape="29.69,66.05 17.62,65.65"/>
        <lane id=":gneJ6_0_1" index="1" speed="13.89" length="12.08" shape="29.75,62.84 17.67,62.45"/>
    </edge>
    <edge id=":gneJ6_2" function="internal">
        <lane id=":gneJ6_2_0" index="0" speed="13.89" length="20.97" shape="24.37,50.61 24.20,55.29 23.72,61.07 23.03,66.83 22.26,71.45"/>
    </edge>
    <edge id=":gneJ6_3" function="internal">
        <lane id=":gneJ6_3_0" index="0" speed="8.91" length="18.15" shape="24.37,50.61 23.99,57.22 22.74,61.94 20.62,64.75 17.62,65.65"/>
        <lane id=":gneJ6_3_1" index="1" speed="8.21" length="15.25" shape="24.37,50.61 23.99,55.82 22.74,59.54 20.63,61.75 17.67,62.45"/>
    </edge>
    <edge id=":gneJ6_5" function="internal">
        <lane id=":gneJ6_5_0" index="0" speed="13.89" length="12.11" shape="17.75,56.05 29.87,56.25"/>
        <lane id=":gneJ6_5_1" index="1" speed="13.89" length="12.11" shape="17.71,59.25 29.81,59.44"/>
    </edge>
    <edge id=":gneJ6_7" function="internal">
        <lane id=":gneJ6_7_0" index="0" speed="7.73" length="4.21" shape="17.71,59.25 20.66,60.05 21.36,60.97"/>
    </edge>
    <edge id=":gneJ6_8" function="internal">
        <lane id=":gneJ6_8_0" index="0" speed="7.73" length="10.91" shape="21.36,60.97 22.40,62.35 22.93,66.15 22.26,71.45"/>
    </edge>
    <edge id=":gneJ7_0" function="internal">
        <lane id=":gneJ7_0_0" index="0" speed="9.01" length="6.94" shape="48.38,66.95 46.43,67.23 45.20,67.89 44.16,68.97 42.77,70.52"/>
    </edge>
    <edge id=":gneJ7_1" function="internal">
        <lane id=":gneJ7_1_0" index="0" speed="13.89" length="7.04" shape="48.38,66.95 46.25,66.98 44.80,66.88 43.34,66.73 41.22,66.59"/>
        <lane id=":gneJ7_1_1" index="1" speed="13.89" length="7.04" shape="48.25,63.75 46.20,63.78 44.81,63.68 43.41,63.53 41.37,63.39"/>
    </edge>
    <edge id=":gneJ8_0" function="internal">
        <lane id=":gneJ8_0_0" index="0" speed="12.09" length="9.32" shape="43.86,52.74 46.06,54.44 47.61,55.74 49.30,56.53 51.94,56.74"/>
    </edge>
    <edge id=":gneJ8_1" function="internal">
        <lane id=":gneJ8_1_0" index="0" speed="13.89" length="9.34" shape="42.68,56.48 51.94,56.74"/>
        <lane id=":gneJ8_1_1" index="1" speed="13.89" length="9.34" shape="42.62,59.68 52.04,59.94"/>
    </edge>
    <edge id=":gneJ9_0" function="internal">
        <lane id=":gneJ9_0_0" index="0" speed="13.89" length="9.02" shape="21.70,92.25 19.72,94.07 18.28,95.31 17.16,96.74 16.14,99.14"/>
    </edge>
    <edge id=":gneJ9_1" function="internal">
        <lane id=":gneJ9_1_0" index="0" speed="13.89" length="8.99" shape="18.25,90.41 17.72,93.03 17.37,94.82 16.93,96.60 16.14,99.14"/>
    </edge>

    <edge id="-gneE0" from="gneJ1" to="gneJ10" priority="-1">
        <lane id="-gneE0_0" index="0" allow="private emergency authority vip passenger hov taxi bus coach delivery truck trailer evehicle" speed="33.16" length="15.44" shape="11.22,3.95 11.30,19.39"/>
        <lane id="-gneE0_1" index="1" allow="private emergency authority vip passenger hov taxi bus coach delivery truck trailer evehicle" speed="33.16" length="15.44" shape="8.02,3.96 8.10,19.40"/>
        <lane id="-gneE0_2" index="2" allow="private emergency authority vip passenger hov taxi bus coach delivery truck trailer evehicle" speed="33.16" length="15.44" shape="4.82,3.98 4.90,19.42"/>