<?xml version="1.0" encoding="UTF-8"?>

<!-- generated on 2021-09-14 16:19:48 by Eclipse SUMO netedit Version 1.10.0
<configuration xmlns:xsi="http://www.w3.org/2001/XMLSchema-instance" xsi:noNamespaceSchemaLocation="http://sumo.dlr.de/xsd/netconvertConfiguration.xsd">

    <input>
        <sumo-net-file value="/home/jeff/ubuntu2/sumo_example/my_city/my.net.xml"/>
    </input>

    <output>
        <output-file value="/home/jeff/ubuntu2/sumo_example/my_city/my.net.xml"/>
    </output>

    <processing>
        <geometry.min-radius.fix.railways value="false"/>
        <geometry.max-grade.fix value="false"/>
        <offset.disable-normalization value="true"/>
        <lefthand value="false"/>
    </processing>

    <junctions>
        <no-turnarounds value="true"/>
        <junctions.corner-detail value="5"/>
        <junctions.limit-turn-speed value="5.5"/>
        <rectangular-lane-cut value="false"/>
    </junctions>

    <pedestrian>
        <walkingareas value="false"/>
    </pedestrian>

    <netedit>
        <route-files value="/home/jeff/ubuntu2/sumo_example/my_city/my.rou.xml"/>
    </netedit>

    <report>
        <aggregate-warnings value="5"/>
    </report>

</configuration>
-->

<routes xmlns:xsi="http://www.w3.org/2001/XMLSchema-instance" xsi:noNamespaceSchemaLocation="http://sumo.dlr.de/xsd/routes_file.xsd">
    <vType id="truck" minGap="2.50" maxSpeed="50.00" vClass="truck" color="128,128,0" decel="3.50" tau="1"/>
    <route edges="gneE32 -gneE36" color="yellow" id="route_0"/>
    <route edges="-gneE34 -gneE33" color="yellow" id="route_1"/>
    <vehicle id="vehicle_0" type="truck" depart="0.00" route="route_0"/>
    <flow id="flow_0" begin="0.00" route="route_0" end="3600.00" number="50"/>
    <flow id="flow_1" type="truck" begin="0.00" route="route_1" end="1000.00" number="50"/>
</routes>
