<?xml version="1.0" encoding="UTF-8"?>

<!-- generated on 2021-09-11 22:56:19 by Eclipse SUMO GUI Version 1.10.0
-->

<configuration xmlns:xsi="http://www.w3.org/2001/XMLSchema-instance" xsi:noNamespaceSchemaLocation="http://sumo.dlr.de/xsd/sumoConfiguration.xsd">

    <input>
        <net-file value="D:\zenoh\sumo\playground.net.xml"/>
        <route-files value="D:\zenoh\sumo\play_ground.rou.xml"/>
        <additional-files value="D:\zenoh\sumo\play_ground.add.xml"/>
    </input>

</configuration>
