<?xml version="1.0" encoding="UTF-8"?>

<!-- generated on 2021-09-12 14:58:40 by Eclipse SUMO GUI Version 1.10.0
-->

<configuration xmlns:xsi="http://www.w3.org/2001/XMLSchema-instance" xsi:noNamespaceSchemaLocation="http://sumo.dlr.de/xsd/sumoConfiguration.xsd">

    <input>
        <net-file value="D:\zenoh\sumo\sumo_example\induction_loop\play_ground.net.xml"/>
        <route-files value="D:\zenoh\sumo\sumo_example\induction_loop\play_ground.rou.xml"/>
        <additional-files value="D:\zenoh\sumo\sumo_example\induction_loop\play_ground.add.xml"/>
    </input>

</configuration>
