<?xml version="1.0" encoding="UTF-8"?>

<!-- generated on 2021-09-12 15:07:08 by Eclipse SUMO GUI Version 1.10.0
-->

<configuration xmlns:xsi="http://www.w3.org/2001/XMLSchema-instance" xsi:noNamespaceSchemaLocation="http://sumo.dlr.de/xsd/sumoConfiguration.xsd">

    <input>
        <net-file value="D:\zenoh\sumo\sumo_example\subscriptions\subscriptions.net.xml"/>
        <route-files value="D:\zenoh\sumo\sumo_example\subscriptions\subscriptions.rou.xml"/>
        <additional-files value="D:\zenoh\sumo\sumo_example\subscriptions\subscriptions.add.xml"/>
    </input>

</configuration>
