<?xml version="1.0" encoding="UTF-8"?>

<!-- generated on 2021-09-12 17:31:52 by Eclipse SUMO GUI Version 1.10.0
-->

<configuration xmlns:xsi="http://www.w3.org/2001/XMLSchema-instance" xsi:noNamespaceSchemaLocation="http://sumo.dlr.de/xsd/sumoConfiguration.xsd">

    <input>
        <net-file value="/home/jeff/ubuntu2/sumo_example/car_collision/car_collision.net.xml"/>
        <route-files value="/home/jeff/ubuntu2/sumo_example/car_collision/car_collision.rou.xml"/>
        <additional-files value="/home/jeff/ubuntu2/sumo_example/car_collision/car_collision.add.xml"/>
    </input>
    <processing>
        <lateral-resolution value="1." />
        <collision.stoptime value="200"/>
        <collision.action value="warn"/>
        <collision.mingap-factor value="0"/>
    </processing>

</configuration>
