<?xml version="1.0" encoding="UTF-8"?>

<!-- generated on 2021-09-12 17:40:58 by Eclipse SUMO netedit Version 1.10.0
<configuration xmlns:xsi="http://www.w3.org/2001/XMLSchema-instance" xsi:noNamespaceSchemaLocation="http://sumo.dlr.de/xsd/netconvertConfiguration.xsd">

    <output>
        <output-file value="/home/jeff/ubuntu2/sumo_example/car_collision/car_collision.net.xml"/>
    </output>

    <processing>
        <offset.disable-normalization value="true"/>
    </processing>

    <junctions>
        <no-turnarounds value="true"/>
    </junctions>

    <netedit>
        <additional-files value="/home/jeff/ubuntu2/sumo_example/car_collision/car_collision.add.xml"/>
        <route-files value="/home/jeff/ubuntu2/sumo_example/car_collision/car_collision.rou.xml"/>
    </netedit>

    <report>
        <aggregate-warnings value="5"/>
    </report>

</configuration>
-->

<routes xmlns:xsi="http://www.w3.org/2001/XMLSchema-instance" xsi:noNamespaceSchemaLocation="http://sumo.dlr.de/xsd/routes_file.xsd">
    <vType id="trunk" vClass="truck" color="0,128,0"/>
    <route edges="gneE7 gneE8" color="yellow" id="route_0"/>
    <route edges="-gneE8 -gneE7 -gneE6 -gneE5 -gneE4" color="yellow" id="route_1"/>
    <route edges="gneE4 gneE5 gneE6 gneE7 gneE8" color="yellow" id="route_2"/>
    <flow id="flow_0" begin="0.00" route="route_0" end="1000.00" number="30"/>
    <flow id="flow_1" type="trunk" begin="0.00" route="route_2" end="1000.00" number="30"/>
</routes>
